<?xml version="1.0" encoding="UTF-8"?>

<!-- generated on Thu Nov 19 11:11:32 2020 by Eclipse SUMO duarouter Version 1.7.0
<configuration xmlns:xsi="http://www.w3.org/2001/XMLSchema-instance" xsi:noNamespaceSchemaLocation="http://sumo.dlr.de/xsd/duarouterConfiguration.xsd">

    <input>
        <net-file value="/home/manas/Sumo/2020-11-19-11-11-24/osm.net.xml"/>
        <route-files value="/home/manas/Sumo/2020-11-19-11-11-24/osm.passenger.trips.xml"/>
    </input>

    <output>
        <output-file value="/home/manas/Sumo/2020-11-19-11-11-24/osm.passenger.trips.xml.tmp"/>
        <write-trips value="true"/>
    </output>

    <time>
        <begin value="0"/>
        <end value="1000"/>
    </time>

    <report>
        <no-warnings value="true"/>
        <ignore-errors value="true"/>
        <no-step-log value="true"/>
    </report>

</configuration>
-->

<routes xmlns:xsi="http://www.w3.org/2001/XMLSchema-instance" xsi:noNamespaceSchemaLocation="http://sumo.dlr.de/xsd/routes_file.xsd">
    <vType id="veh_passenger" vClass="passenger"/>
    <trip id="veh0" type="veh_passenger" depart="0.00" departLane="best" from="369665627#9" to="-191953085#1"/>
    <trip id="veh1" type="veh_passenger" depart="2.81" departLane="best" from="369835582#0" to="369665651#0"/>
    <trip id="veh2" type="veh_passenger" depart="5.63" departLane="best" from="369855686" to="-369507193"/>
    <trip id="veh3" type="veh_passenger" depart="8.44" departLane="best" from="-369999891#0" to="-191953103#0"/>
    <trip id="veh4" type="veh_passenger" depart="11.26" departLane="best" from="-369835576#0" to="191953094#2"/>
    <trip id="veh6" type="veh_passenger" depart="16.89" departLane="best" from="369665640" to="191953150#20"/>
    <trip id="veh7" type="veh_passenger" depart="19.70" departLane="best" from="-369835576#2" to="362202385#1"/>
    <trip id="veh8" type="veh_passenger" depart="22.52" departLane="best" from="369835635" to="-191953031#11"/>
    <trip id="veh9" type="veh_passenger" depart="25.33" departLane="best" from="369835631" to="369673292"/>
    <trip id="veh11" type="veh_passenger" depart="30.96" departLane="best" from="369999900#1" to="-369835646#2"/>
    <trip id="veh13" type="veh_passenger" depart="36.59" departLane="best" from="191953150#12" to="370006687#2"/>
    <trip id="veh14" type="veh_passenger" depart="39.40" departLane="best" from="-369855689" to="191953150#6"/>
    <trip id="veh15" type="veh_passenger" depart="42.22" departLane="best" from="369835640#2" to="369518895#1"/>
    <trip id="veh16" type="veh_passenger" depart="45.03" departLane="best" from="369855654#0" to="191953198"/>
    <trip id="veh17" type="veh_passenger" depart="47.85" departLane="best" from="369673307#1" to="-191953150#17"/>
    <trip id="veh18" type="veh_passenger" depart="50.66" departLane="best" from="-362206532#0" to="-369835592#0"/>
    <trip id="veh19" type="veh_passenger" depart="53.48" departLane="best" from="-369518895#0" to="-369835625#1"/>
    <trip id="veh20" type="veh_passenger" depart="56.29" departLane="best" from="-369855686" to="-369835570#2"/>
    <trip id="veh21" type="veh_passenger" depart="59.10" departLane="best" from="369665637" to="369518883"/>
    <trip id="veh22" type="veh_passenger" depart="61.92" departLane="best" from="-369673289#0" to="369835568#3"/>
    <trip id="veh23" type="veh_passenger" depart="64.73" departLane="best" from="-369665653#0" to="-369855689"/>
    <trip id="veh24" type="veh_passenger" depart="67.55" departLane="best" from="370134725" to="369665627#0"/>
    <trip id="veh25" type="veh_passenger" depart="70.36" departLane="best" from="369835644" to="369835606"/>
    <trip id="veh26" type="veh_passenger" depart="73.18" departLane="best" from="-369835590" to="-191953150#0"/>
    <trip id="veh27" type="veh_passenger" depart="75.99" departLane="best" from="-369835641#3" to="-369835614#1"/>
    <trip id="veh28" type="veh_passenger" depart="78.81" departLane="best" from="369855656#5" to="-369835641#2"/>
    <trip id="veh29" type="veh_passenger" depart="81.62" departLane="best" departSpeed="max" from="369980465" to="-370008837"/>
    <trip id="veh30" type="veh_passenger" depart="84.44" departLane="best" from="-369835613#7" to="-369835603"/>
    <trip id="veh31" type="veh_passenger" depart="87.25" departLane="best" from="191953178#0" to="-369835613#6"/>
    <trip id="veh32" type="veh_passenger" depart="90.06" departLane="best" from="369507189" to="369855668"/>
    <trip id="veh33" type="veh_passenger" depart="92.88" departLane="best" from="-369999835#1" to="-369835576#0"/>
    <trip id="veh34" type="veh_passenger" depart="95.69" departLane="best" from="370134726#4" to="191953094#2"/>
    <trip id="veh35" type="veh_passenger" depart="98.51" departLane="best" from="-369518871#0" to="-191953150#19"/>
    <trip id="veh36" type="veh_passenger" depart="101.32" departLane="best" from="-191953155" to="-369855690#1"/>
    <trip id="veh37" type="veh_passenger" depart="104.14" departLane="best" from="370134726#3" to="191953150#1"/>
    <trip id="veh38" type="veh_passenger" depart="106.95" departLane="best" from="370006687#1" to="369835645#1"/>
    <trip id="veh39" type="veh_passenger" depart="109.77" departLane="best" from="-369835614#1" to="369665627#0"/>
    <trip id="veh40" type="veh_passenger" depart="112.58" departLane="best" from="-369665623#2" to="-369999902#0"/>
    <trip id="veh42" type="veh_passenger" depart="118.21" departLane="best" from="191953031#6" to="-369673294"/>
    <trip id="veh43" type="veh_passenger" depart="121.02" departLane="best" departSpeed="max" from="369980465" to="369835646#2"/>
    <trip id="veh44" type="veh_passenger" depart="123.84" departLane="best" from="-369835636#3" to="369665626"/>
    <trip id="veh45" type="veh_passenger" depart="126.65" departLane="best" from="369835608#0" to="191953150#16"/>
    <trip id="veh46" type="veh_passenger" depart="129.47" departLane="best" from="369835614#0" to="191953150#10"/>
    <trip id="veh47" type="veh_passenger" depart="132.28" departLane="best" from="-191953031#0" to="-369835645#0"/>
    <trip id="veh48" type="veh_passenger" depart="135.10" departLane="best" from="-191953031#9" to="369999771#3"/>
    <trip id="veh49" type="veh_passenger" depart="137.91" departLane="best" from="-369835640#0" to="-191953150#6"/>
    <trip id="veh50" type="veh_passenger" depart="140.73" departLane="best" from="369855661" to="369999890#1"/>
    <trip id="veh51" type="veh_passenger" depart="143.54" departLane="best" from="-369507189" to="191953031#6"/>
    <trip id="veh52" type="veh_passenger" depart="146.35" departLane="best" from="-191953178#3" to="369835592#0"/>
    <trip id="veh53" type="veh_passenger" depart="149.17" departLane="best" from="369835609" to="-369665627#2"/>
    <trip id="veh54" type="veh_passenger" depart="151.98" departLane="best" departSpeed="max" from="191943558" to="191953150#4"/>
    <trip id="veh55" type="veh_passenger" depart="154.80" departLane="best" from="-369835614#0" to="369835646#3"/>
    <trip id="veh56" type="veh_passenger" depart="157.61" departLane="best" from="-369999895#0" to="-369835570#3"/>
    <trip id="veh57" type="veh_passenger" depart="160.43" departLane="best" from="-369835568#2" to="-369835641#0"/>
    <trip id="veh58" type="veh_passenger" depart="163.24" departLane="best" from="370134726#3" to="369665627#5"/>
    <trip id="veh59" type="veh_passenger" depart="166.06" departLane="best" from="-369999904#1" to="191953094#2"/>
    <trip id="veh60" type="veh_passenger" depart="168.87" departLane="best" from="-369665627#0" to="-369835576#5"/>
    <trip id="veh61" type="veh_passenger" depart="171.69" departLane="best" from="-369835646#4" to="362202385#1"/>
    <trip id="veh62" type="veh_passenger" depart="174.50" departLane="best" from="-191953178#4" to="369665623#5"/>
    <trip id="veh63" type="veh_passenger" depart="177.31" departLane="best" from="-369835590" to="369855684#1"/>
    <trip id="veh65" type="veh_passenger" depart="182.94" departLane="best" from="-369835595" to="369665645"/>
    <trip id="veh66" type="veh_passenger" depart="185.76" departLane="best" from="-369835574#0" to="-369665627#5"/>
    <trip id="veh67" type="veh_passenger" depart="188.57" departLane="best" from="369999837#0" to="191953198"/>
    <trip id="veh68" type="veh_passenger" depart="191.39" departLane="best" departSpeed="max" from="191943558" to="369835613#1"/>
    <trip id="veh69" type="veh_passenger" depart="194.20" departLane="best" from="-369518890#1" to="-369999900#2"/>
    <trip id="veh70" type="veh_passenger" depart="197.02" departLane="best" from="-369999895#0" to="-370134726#2"/>
    <trip id="veh71" type="veh_passenger" depart="199.83" departLane="best" from="369835576#2" to="369665646#2"/>
    <trip id="veh72" type="veh_passenger" depart="202.64" departLane="best" from="370134723#1" to="-369518890#2"/>
    <trip id="veh73" type="veh_passenger" depart="205.46" departLane="best" from="-370006687#2" to="369835645#1"/>
    <trip id="veh74" type="veh_passenger" depart="208.27" departLane="best" from="191953150#4" to="-191953150#20"/>
    <trip id="veh75" type="veh_passenger" depart="211.09" departLane="best" from="370135671" to="369835636#6"/>
    <trip id="veh76" type="veh_passenger" depart="213.90" departLane="best" from="370006687#0" to="369999771#1"/>
    <trip id="veh77" type="veh_passenger" depart="216.72" departLane="best" from="369835645#4" to="-369673282"/>
    <trip id="veh78" type="veh_passenger" depart="219.53" departLane="best" departSpeed="max" from="191943558" to="-369835572"/>
    <trip id="veh79" type="veh_passenger" depart="222.35" departLane="best" from="-369999837#0" to="-191953150#7"/>
    <trip id="veh80" type="veh_passenger" depart="225.16" departLane="best" from="-369855689" to="370134723#2"/>
    <trip id="veh81" type="veh_passenger" depart="227.98" departLane="best" from="-369835614#0" to="369835613#1"/>
    <trip id="veh82" type="veh_passenger" depart="230.79" departLane="best" from="-370006762#1" to="-369999891#0"/>
    <trip id="veh83" type="veh_passenger" depart="233.60" departLane="best" from="369999900#1" to="370134726#3"/>
    <trip id="veh84" type="veh_passenger" depart="236.42" departLane="best" from="-369665646#1" to="-369835636#1"/>
    <trip id="veh85" type="veh_passenger" depart="239.23" departLane="best" from="370006687#0" to="191953198"/>
    <trip id="veh86" type="veh_passenger" depart="242.05" departLane="best" from="-191953150#6" to="362202277#0"/>
    <trip id="veh87" type="veh_passenger" depart="244.86" departLane="best" from="191953031#7" to="369835643#0"/>
    <trip id="veh88" type="veh_passenger" depart="247.68" departLane="best" from="-369665646#3" to="369999900#4"/>
    <trip id="veh89" type="veh_passenger" depart="250.49" departLane="best" from="369518890#0" to="369665646#3"/>
    <trip id="veh90" type="veh_passenger" depart="253.31" departLane="best" from="-369835592#2" to="-369665623#9"/>
    <trip id="veh91" type="veh_passenger" depart="256.12" departLane="best" from="369855684#1" to="-369835603"/>
    <trip id="veh92" type="veh_passenger" depart="258.93" departLane="best" from="-369999890#1" to="362202277#0"/>
    <trip id="veh94" type="veh_passenger" depart="264.56" departLane="best" from="-369835597#0" to="-369999808"/>
    <trip id="veh95" type="veh_passenger" depart="267.38" departLane="best" from="369673282" to="-369835636#3"/>
    <trip id="veh96" type="veh_passenger" depart="270.19" departLane="best" from="-369835641#3" to="369835582#0"/>
    <trip id="veh97" type="veh_passenger" depart="273.01" departLane="best" from="-362202277#0" to="-370006845#0"/>
    <trip id="veh98" type="veh_passenger" depart="275.82" departLane="best" from="370135671" to="370134726#3"/>
    <trip id="veh99" type="veh_passenger" depart="278.64" departLane="best" from="-362202278" to="-369835572"/>
    <trip id="veh100" type="veh_passenger" depart="281.45" departLane="best" from="-369835614#0" to="369999835#0"/>
    <trip id="veh102" type="veh_passenger" depart="287.08" departLane="best" from="-369855686" to="-369665646#2"/>
    <trip id="veh103" type="veh_passenger" depart="289.89" departLane="best" from="369835641#2" to="369673302#0"/>
    <trip id="veh104" type="veh_passenger" depart="292.71" departLane="best" from="369665623#2" to="370134723#3"/>
    <trip id="veh105" type="veh_passenger" depart="295.52" departLane="best" from="369665646#0" to="-191953031#12"/>
    <trip id="veh106" type="veh_passenger" depart="298.34" departLane="best" from="369665651#1" to="369999847#1"/>
    <trip id="veh107" type="veh_passenger" depart="301.15" departLane="best" from="-369665623#0" to="191953150#7"/>
    <trip id="veh108" type="veh_passenger" depart="303.97" departLane="best" from="-369835620" to="369518871#0"/>
    <trip id="veh109" type="veh_passenger" depart="306.78" departLane="best" from="369835645#3" to="-369518871#1"/>
    <trip id="veh110" type="veh_passenger" depart="309.60" departLane="best" from="-191953031#10" to="369835602"/>
    <trip id="veh111" type="veh_passenger" depart="312.41" departLane="best" from="369835590" to="191953150#6"/>
    <trip id="veh112" type="veh_passenger" depart="315.22" departLane="best" from="-369999900#1" to="-191953031#2"/>
    <trip id="veh113" type="veh_passenger" depart="318.04" departLane="best" from="-362202385#0" to="369855654#3"/>
    <trip id="veh114" type="veh_passenger" depart="320.85" departLane="best" from="369855690#3" to="191953150#20"/>
    <trip id="veh115" type="veh_passenger" depart="323.67" departLane="best" from="369835641#3" to="191953198"/>
    <trip id="veh116" type="veh_passenger" depart="326.48" departLane="best" from="-369835640#1" to="369855669#0"/>
    <trip id="veh117" type="veh_passenger" depart="329.30" departLane="best" from="369855687#3" to="-369835570#2"/>
    <trip id="veh118" type="veh_passenger" depart="332.11" departLane="best" from="-369835606" to="-369518895#0"/>
    <trip id="veh119" type="veh_passenger" depart="334.93" departLane="best" from="369835614#1" to="369855656#0"/>
    <trip id="veh120" type="veh_passenger" depart="337.74" departLane="best" from="-369999848" to="369529057"/>
    <trip id="veh121" type="veh_passenger" depart="340.56" departLane="best" from="-369665646#1" to="369999771#3"/>
    <trip id="veh122" type="veh_passenger" depart="343.37" departLane="best" from="369855654#2" to="370006710"/>
    <trip id="veh123" type="veh_passenger" depart="346.18" departLane="best" from="369835636#0" to="369855654#2"/>
    <trip id="veh124" type="veh_passenger" depart="349.00" departLane="best" from="-191953085#0" to="369835570#3"/>
    <trip id="veh125" type="veh_passenger" depart="351.81" departLane="best" from="369835636#0" to="-369835614#0"/>
    <trip id="veh126" type="veh_passenger" depart="354.63" departLane="best" from="369835623" to="-369665623#1"/>
    <trip id="veh127" type="veh_passenger" depart="357.44" departLane="best" from="369855656#2" to="369835643#4"/>
    <trip id="veh128" type="veh_passenger" depart="360.26" departLane="best" from="-369835576#3" to="369835628#1"/>
    <trip id="veh129" type="veh_passenger" depart="363.07" departLane="best" from="369835626#1" to="-369835585"/>
    <trip id="veh130" type="veh_passenger" depart="365.89" departLane="best" from="-191953085#0" to="-369673307#0"/>
    <trip id="veh131" type="veh_passenger" depart="368.70" departLane="best" from="369999904#1" to="-369835626#0"/>
    <trip id="veh132" type="veh_passenger" depart="371.52" departLane="best" from="369665628#0" to="-369999835#0"/>
    <trip id="veh133" type="veh_passenger" depart="374.33" departLane="best" from="370006763" to="191953150#13"/>
    <trip id="veh134" type="veh_passenger" depart="377.14" departLane="best" from="369999847#1" to="-369665623#5"/>
    <trip id="veh135" type="veh_passenger" depart="379.96" departLane="best" from="369999902#0" to="-369835613#7"/>
    <trip id="veh136" type="veh_passenger" depart="382.77" departLane="best" from="-369665623#1" to="-369999902#0"/>
    <trip id="veh137" type="veh_passenger" depart="385.59" departLane="best" from="369665623#0" to="191953094#2"/>
    <trip id="veh138" type="veh_passenger" depart="388.40" departLane="best" from="-369999771#0" to="191953198"/>
    <trip id="veh139" type="veh_passenger" depart="391.22" departLane="best" from="-191953031#1" to="369999771#1"/>
    <trip id="veh140" type="veh_passenger" depart="394.03" departLane="best" from="191953150#15" to="369673307#1"/>
    <trip id="veh141" type="veh_passenger" depart="396.85" departLane="best" from="369835591" to="369665646#0"/>
    <trip id="veh142" type="veh_passenger" depart="399.66" departLane="best" from="-369855669#0" to="-191953178#4"/>
    <trip id="veh143" type="veh_passenger" depart="402.47" departLane="best" from="369665653#0" to="-369835645#4"/>
    <trip id="veh144" type="veh_passenger" depart="405.29" departLane="best" from="-369999847#0" to="-369835636#0"/>
    <trip id="veh145" type="veh_passenger" depart="408.10" departLane="best" from="369999847#1" to="369665651#0"/>
    <trip id="veh146" type="veh_passenger" depart="410.92" departLane="best" from="369855690#3" to="369518892"/>
    <trip id="veh147" type="veh_passenger" depart="413.73" departLane="best" from="-369835636#4" to="191953150#3"/>
    <trip id="veh148" type="veh_passenger" depart="416.55" departLane="best" from="-191953031#0" to="-369835628#1"/>
    <trip id="veh149" type="veh_passenger" depart="419.36" departLane="best" from="-369999900#2" to="191953198"/>
    <trip id="veh150" type="veh_passenger" depart="422.18" departLane="best" from="369665646#0" to="-370134723#3"/>
    <trip id="veh151" type="veh_passenger" depart="424.99" departLane="best" from="-370006687#2" to="-369835572"/>
    <trip id="veh152" type="veh_passenger" depart="427.81" departLane="best" departSpeed="max" from="191943558" to="369855669#1"/>
    <trip id="veh153" type="veh_passenger" depart="430.62" departLane="best" from="369835626#1" to="-369673288"/>
    <trip id="veh154" type="veh_passenger" depart="433.43" departLane="best" from="-369507189" to="191953094#2"/>
    <trip id="veh155" type="veh_passenger" depart="436.25" departLane="best" from="369665627#3" to="-369835646#1"/>
    <trip id="veh156" type="veh_passenger" depart="439.06" departLane="best" from="369673284" to="-369835576#5"/>
    <trip id="veh157" type="veh_passenger" depart="441.88" departLane="best" from="-369835568#1" to="-191953085#0"/>
    <trip id="veh158" type="veh_passenger" depart="444.69" departLane="best" from="-369835602" to="191953031#10"/>
    <trip id="veh159" type="veh_passenger" depart="447.51" departLane="best" from="369835645#5" to="-362202277#0"/>
    <trip id="veh160" type="veh_passenger" depart="450.32" departLane="best" from="-369999873#0" to="369665623#5"/>
    <trip id="veh161" type="veh_passenger" depart="453.14" departLane="best" from="191953031#12" to="-369835601"/>
    <trip id="veh162" type="veh_passenger" depart="455.95" departLane="best" from="369665646#1" to="-191953031#11"/>
    <trip id="veh163" type="veh_passenger" depart="458.76" departLane="best" from="369835595" to="369835601"/>
    <trip id="veh164" type="veh_passenger" depart="461.58" departLane="best" from="-369665623#0" to="-369999895#0"/>
    <trip id="veh166" type="veh_passenger" depart="467.21" departLane="best" from="-370006845#0" to="369835620"/>
    <trip id="veh167" type="veh_passenger" depart="470.02" departLane="best" from="369665653#2" to="370134723#3"/>
    <trip id="veh168" type="veh_passenger" depart="472.84" departLane="best" from="369518890#0" to="369999891#0"/>
    <trip id="veh169" type="veh_passenger" depart="475.65" departLane="best" from="369855686" to="369518890#1"/>
    <trip id="veh170" type="veh_passenger" depart="478.47" departLane="best" from="369835570#2" to="191953094#1"/>
    <trip id="veh171" type="veh_passenger" depart="481.28" departLane="best" from="369835641#0" to="191953150#3"/>
    <trip id="veh172" type="veh_passenger" depart="484.10" departLane="best" from="369855687#2" to="369835576#0"/>
    <trip id="veh173" type="veh_passenger" depart="486.91" departLane="best" departSpeed="max" from="191943558" to="-369835613#4"/>
    <trip id="veh174" type="veh_passenger" depart="489.72" departLane="best" from="369835609" to="191953094#2"/>
    <trip id="veh175" type="veh_passenger" depart="492.54" departLane="best" from="369665627#1" to="-369835623"/>
    <trip id="veh176" type="veh_passenger" depart="495.35" departLane="best" from="-362202386#0" to="-369835628#1"/>
    <trip id="veh177" type="veh_passenger" depart="498.17" departLane="best" from="-369835620" to="-369835643#2"/>
    <trip id="veh178" type="veh_passenger" depart="500.98" departLane="best" from="191953150#16" to="-369665628#0"/>
    <trip id="veh179" type="veh_passenger" depart="503.80" departLane="best" from="-369835591" to="369673289#1"/>
    <trip id="veh180" type="veh_passenger" depart="506.61" departLane="best" from="369676971" to="-191953155"/>
    <trip id="veh181" type="veh_passenger" depart="509.43" departLane="best" from="-369999873#1" to="-369835568#6"/>
    <trip id="veh182" type="veh_passenger" depart="512.24" departLane="best" from="-369999890#1" to="369855684#0"/>
    <trip id="veh183" type="veh_passenger" depart="515.06" departLane="best" from="369507183" to="369673290"/>
    <trip id="veh184" type="veh_passenger" depart="517.87" departLane="best" from="-369855690#1" to="-191953031#11"/>
    <trip id="veh185" type="veh_passenger" depart="520.68" departLane="best" from="-369855656#2" to="369835582#1"/>
    <trip id="veh186" type="veh_passenger" depart="523.50" departLane="best" from="369835646#1" to="369999895#0"/>
    <trip id="veh187" type="veh_passenger" depart="526.31" departLane="best" from="-369999904#0" to="-191953103#0"/>
    <trip id="veh188" type="veh_passenger" depart="529.13" departLane="best" from="-369835646#3" to="369665651#1"/>
    <trip id="veh189" type="veh_passenger" depart="531.94" departLane="best" from="-369999847#1" to="-369665653#1"/>
    <trip id="veh190" type="veh_passenger" depart="534.76" departLane="best" from="-370134726#3" to="-369665627#12"/>
    <trip id="veh192" type="veh_passenger" depart="540.39" departLane="best" from="-369999797" to="191953178#3"/>
    <trip id="veh194" type="veh_passenger" depart="546.01" departLane="best" from="-369665627#7" to="-370134723#1"/>
    <trip id="veh195" type="veh_passenger" depart="548.83" departLane="best" from="-191953150#20" to="-369855689"/>
    <trip id="veh196" type="veh_passenger" depart="551.64" departLane="best" from="-369835570#3" to="-369835645#1"/>
    <trip id="veh197" type="veh_passenger" depart="554.46" departLane="best" from="369835606" to="-369855689"/>
    <trip id="veh198" type="veh_passenger" depart="557.27" departLane="best" from="-369835608#1" to="-362209624"/>
    <trip id="veh199" type="veh_passenger" depart="560.09" departLane="best" from="-191953031#9" to="191953150#16"/>
    <trip id="veh200" type="veh_passenger" depart="562.90" departLane="best" from="370135671" to="-369855656#0"/>
    <trip id="veh201" type="veh_passenger" depart="565.72" departLane="best" from="369665640" to="369835609"/>
    <trip id="veh202" type="veh_passenger" depart="568.53" departLane="best" from="369665643" to="369835585"/>
    <trip id="veh203" type="veh_passenger" depart="571.35" departLane="best" from="-191953036#0" to="-369665645"/>
    <trip id="veh204" type="veh_passenger" depart="574.16" departLane="best" from="-369665627#12" to="369665646#0"/>
    <trip id="veh205" type="veh_passenger" depart="576.97" departLane="best" from="191953178#2" to="-369835574#2"/>
    <trip id="veh206" type="veh_passenger" depart="579.79" departLane="best" from="-369673284" to="369518871#1"/>
    <trip id="veh207" type="veh_passenger" depart="582.60" departLane="best" from="-369665623#1" to="-191953085#1"/>
    <trip id="veh208" type="veh_passenger" depart="585.42" departLane="best" from="-369835641#1" to="369665651#0"/>
    <trip id="veh209" type="veh_passenger" depart="588.23" departLane="best" from="369999900#1" to="-369999808"/>
    <trip id="veh210" type="veh_passenger" depart="591.05" departLane="best" from="369835568#5" to="-362202385#0"/>
    <trip id="veh211" type="veh_passenger" depart="593.86" departLane="best" from="369673302#2" to="369665623#2"/>
    <trip id="veh212" type="veh_passenger" depart="596.68" departLane="best" from="-369518895#0" to="369835603"/>
    <trip id="veh213" type="veh_passenger" depart="599.49" departLane="best" from="369835645#5" to="369507189"/>
    <trip id="veh214" type="veh_passenger" depart="602.30" departLane="best" from="-369665627#0" to="370134723#1"/>
    <trip id="veh215" type="veh_passenger" depart="605.12" departLane="best" from="-369999900#1" to="-369855686"/>
    <trip id="veh216" type="veh_passenger" depart="607.93" departLane="best" from="191953031#9" to="-369837235"/>
    <trip id="veh217" type="veh_passenger" depart="610.75" departLane="best" from="-369529057" to="369999900#4"/>
    <trip id="veh218" type="veh_passenger" depart="613.56" departLane="best" from="369665627#5" to="369835636#1"/>
    <trip id="veh219" type="veh_passenger" depart="616.38" departLane="best" from="369835568#0" to="-369999902#1"/>
    <trip id="veh220" type="veh_passenger" depart="619.19" departLane="best" from="191953150#15" to="191953031#5"/>
    <trip id="veh221" type="veh_passenger" depart="622.01" departLane="best" from="369835641#0" to="-369507193"/>
    <trip id="veh223" type="veh_passenger" depart="627.64" departLane="best" from="-370134726#0" to="369518890#0"/>
    <trip id="veh224" type="veh_passenger" depart="630.45" departLane="best" from="-369855689" to="-191953103#0"/>
    <trip id="veh225" type="veh_passenger" depart="633.26" departLane="best" from="369835645#5" to="-369673302#0"/>
    <trip id="veh226" type="veh_passenger" depart="636.08" departLane="best" from="-369835572" to="369835616"/>
    <trip id="veh228" type="veh_passenger" depart="641.71" departLane="best" from="-191953031#4" to="369999890#1"/>
    <trip id="veh229" type="veh_passenger" depart="644.52" departLane="best" from="-369507189" to="369673307#1"/>
    <trip id="veh230" type="veh_passenger" depart="647.34" departLane="best" from="191953031#1" to="369835591"/>
    <trip id="veh231" type="veh_passenger" depart="650.15" departLane="best" from="191953031#10" to="369835613#7"/>
    <trip id="veh232" type="veh_passenger" depart="652.97" departLane="best" from="-369518883" to="-369835576#2"/>
    <trip id="veh233" type="veh_passenger" depart="655.78" departLane="best" from="369673302#2" to="-369835637#0"/>
    <trip id="veh234" type="veh_passenger" depart="658.60" departLane="best" from="362209624" to="191953031#0"/>
    <trip id="veh235" type="veh_passenger" depart="661.41" departLane="best" from="369673307#0" to="-369835619"/>
    <trip id="veh236" type="veh_passenger" depart="664.22" departLane="best" from="-369835608#0" to="-369665623#9"/>
    <trip id="veh237" type="veh_passenger" depart="667.04" departLane="best" from="191953150#12" to="369835592#1"/>
    <trip id="veh238" type="veh_passenger" depart="669.85" departLane="best" from="-369673302#2" to="-369835574#1"/>
    <trip id="veh239" type="veh_passenger" depart="672.67" departLane="best" departSpeed="max" from="191943558" to="369835568#1"/>
    <trip id="veh240" type="veh_passenger" depart="675.48" departLane="best" from="370006710" to="191953103#0"/>
    <trip id="veh241" type="veh_passenger" depart="678.30" departLane="best" from="-369835627#0" to="-369518892"/>
    <trip id="veh242" type="veh_passenger" depart="681.11" departLane="best" from="-369673307#1" to="-369835580"/>
    <trip id="veh243" type="veh_passenger" depart="683.93" departLane="best" from="-369673298" to="-191953031#6"/>
    <trip id="veh244" type="veh_passenger" depart="686.74" departLane="best" from="191953150#11" to="-369835623"/>
    <trip id="veh245" type="veh_passenger" depart="689.55" departLane="best" from="369855656#0" to="191953031#9"/>
    <trip id="veh246" type="veh_passenger" depart="692.37" departLane="best" from="369855656#3" to="191953198"/>
    <trip id="veh247" type="veh_passenger" depart="695.18" departLane="best" from="-370135671" to="-370006687#0"/>
    <trip id="veh248" type="veh_passenger" depart="698.00" departLane="best" from="-369673302#2" to="-191953150#20"/>
    <trip id="veh249" type="veh_passenger" depart="700.81" departLane="best" from="369999857#1" to="191953031#11"/>
    <trip id="veh250" type="veh_passenger" depart="703.63" departLane="best" from="369835637#0" to="-369999835#1"/>
    <trip id="veh251" type="veh_passenger" depart="706.44" departLane="best" from="-362202278" to="369665623#4"/>
    <trip id="veh252" type="veh_passenger" depart="709.26" departLane="best" from="-191953150#4" to="-369665640"/>
    <trip id="veh253" type="veh_passenger" depart="712.07" departLane="best" from="191953178#0" to="-369835636#5"/>
    <trip id="veh254" type="veh_passenger" depart="714.89" departLane="best" from="370134726#2" to="-369665623#8"/>
    <trip id="veh255" type="veh_passenger" depart="717.70" departLane="best" from="369835608#1" to="369518871#1"/>
    <trip id="veh257" type="veh_passenger" depart="723.33" departLane="best" from="-370006687#2" to="369835644"/>
    <trip id="veh258" type="veh_passenger" depart="726.14" departLane="best" from="369665625" to="369518883"/>
    <trip id="veh259" type="veh_passenger" depart="728.96" departLane="best" from="369835590" to="369999890#1"/>
    <trip id="veh260" type="veh_passenger" depart="731.77" departLane="best" from="-369673289#1" to="-362202385#0"/>
    <trip id="veh261" type="veh_passenger" depart="734.59" departLane="best" from="-191953031#1" to="-370006731"/>
    <trip id="veh262" type="veh_passenger" depart="737.40" departLane="best" from="369518883" to="-369835634"/>
    <trip id="veh263" type="veh_passenger" depart="740.22" departLane="best" from="-369835591" to="369673302#2"/>