<?xml version="1.0" encoding="UTF-8"?>

<!-- generated on Thu Nov 19 11:11:31 2020 by Eclipse SUMO netconvert Version 1.7.0
<configuration xmlns:xsi="http://www.w3.org/2001/XMLSchema-instance" xsi:noNamespaceSchemaLocation="http://sumo.dlr.de/xsd/netconvertConfiguration.xsd">

    <input>
        <type-files value="/usr/share/sumo/data/typemap/osmNetconvert.typ.xml"/>
        <osm-files value="osm_bbox.osm.xml"/>
    </input>

    <output>
        <output-file value="osm.net.xml"/>
        <output.street-names value="true"/>
        <output.original-names value="true"/>
    </output>

    <projection>
        <proj.utm value="true"/>
    </projection>

    <processing>
        <geometry.remove value="true"/>
        <roundabouts.guess value="true"/>
        <lefthand value="true"/>
    </processing>

    <tls_building>
        <tls.discard-simple value="true"/>
        <tls.join value="true"/>
        <tls.guess-signals value="true"/>
        <tls.default-type value="actuated"/>
    </tls_building>

    <ramp_guessing>
        <ramps.guess value="true"/>
    </ramp_guessing>

    <junctions>
        <junctions.join value="true"/>
        <junctions.corner-detail value="5"/>
    </junctions>

    <report>
        <verbose value="true"/>
        <aggregate-warnings value="5"/>
    </report>

</configuration>
-->

<net version="1.6" junctionCornerDetail="5" lefthand="true" limitTurnSpeed="5.50" xmlns:xsi="http://www.w3.org/2001/XMLSchema-instance" xsi:noNamespaceSchemaLocation="http://sumo.dlr.de/xsd/net_file.xsd">

    <location netOffset="-585710.46,-2512655.00" convBoundary="0.00,-0.00,2456.80,1603.95" origBoundary="75.834630,22.638508,75.888558,22.800069" projParameter="+proj=utm +zone=43 +ellps=WGS84 +datum=WGS84 +units=m +no_defs"/>

    <type id="highway.bridleway" priority="1" numLanes="1" speed="2.78" allow="pedestrian" oneway="1" width="2.00"/>
    <type id="highway.bus_guideway" priority="1" numLanes="1" speed="27.78" allow="bus" oneway="1"/>
    <type id="highway.cycleway" priority="1" numLanes="1" speed="8.33" allow="bicycle" oneway="0" width="1.00"/>
    <type id="highway.footway" priority="1" numLanes="1" speed="2.78" allow="pedestrian" oneway="1" width="2.00"/>
    <type id="highway.ford" priority="1" numLanes="1" speed="2.78" allow="army" oneway="0"/>
    <type id="highway.living_street" priority="2" numLanes="1" speed="2.78" disallow="tram rail_urban rail rail_electric rail_fast ship" oneway="0"/>
    <type id="highway.motorway" priority="14" numLanes="2" speed="39.44" allow="private emergency authority army vip passenger hov taxi bus coach delivery truck trailer motorcycle evehicle custom1 custom2" oneway="1"/>
    <type id="highway.motorway_link" priority="9" numLanes="1" speed="22.22" allow="private emergency authority army vip passenger hov taxi bus coach delivery truck trailer motorcycle evehicle custom1 custom2" oneway="1"/>
    <type id="highway.path" priority="1" numLanes="1" speed="2.78" allow="pedestrian bicycle" oneway="1" width="2.00"/>
    <type id="highway.pedestrian" priority="1" numLanes="1" speed="2.78" allow="pedestrian" oneway="1" width="2.00"/>
    <type id="highway.primary" priority="12" numLanes="2" speed="27.78" disallow="tram rail_urban rail rail_electric rail_fast ship" oneway="0"/>
    <type id="highway.primary_link" priority="7" numLanes="1" speed="22.22" disallow="tram rail_urban rail rail_electric rail_fast ship" oneway="0"/>
    <type id="highway.raceway" priority="15" numLanes="2" speed="83.33" allow="vip" oneway="0"/>
    <type id="highway.residential" priority="3" numLanes="1" speed="13.89" disallow="tram rail_urban rail rail_electric rail_fast ship" oneway="0"/>
    <type id="highway.secondary" priority="11" numLanes="1" speed="27.78" disallow="tram rail_urban rail rail_electric rail_fast ship" oneway="0"/>
    <type id="highway.secondary_link" priority="6" numLanes="1" speed="22.22" disallow="tram rail_urban rail rail_electric rail_fast ship" oneway="0"/>
    <type id="highway.service" priority="1" numLanes="1" speed="5.56" allow="pedestrian delivery bicycle" oneway="0"/>
    <type id="highway.stairs" priority="1" numLanes="1" speed="1.39" allow="pedestrian" oneway="1" width="2.00"/>
    <type id="highway.step" priority="1" numLanes="1" speed="1.39" allow="pedestrian" oneway="1" width="2.00"/>
    <type id="highway.steps" priority="1" numLanes="1" speed="1.39" allow="pedestrian" oneway="1" width="2.00"/>
    <type id="highway.tertiary" priority="10" numLanes="1" speed="22.22" disallow="tram rail_urban rail rail_electric rail_fast ship" oneway="0"/>
    <type id="highway.tertiary_link" priority="5" numLanes="1" speed="22.22" disallow="tram rail_urban rail rail_electric rail_fast ship" oneway="0"/>
    <type id="highway.track" priority="1" numLanes="1" speed="5.56" allow="pedestrian motorcycle moped bicycle" oneway="0"/>
    <type id="highway.trunk" priority="13" numLanes="2" speed="27.78" disallow="pedestrian bicycle tram rail_urban rail rail_electric rail_fast ship" oneway="0"/>
    <type id="highway.trunk_link" priority="8" numLanes="1" speed="22.22" disallow="pedestrian bicycle tram rail_urban rail rail_electric rail_fast ship" oneway="0"/>
    <type id="highway.unclassified" priority="4" numLanes="1" speed="13.89" disallow="tram rail_urban rail rail_electric rail_fast ship" oneway="0"/>
    <type id="highway.unsurfaced" priority="1" numLanes="1" speed="8.33" disallow="tram rail_urban rail rail_electric rail_fast ship" oneway="0"/>
    <type id="railway.highspeed" priority="21" numLanes="1" speed="69.44" allow="rail_fast" oneway="1"/>
    <type id="railway.light_rail" priority="19" numLanes="1" speed="27.78" allow="rail_urban" oneway="1"/>
    <type id="railway.preserved" priority="16" numLanes="1" speed="27.78" allow="rail" oneway="1"/>
    <type id="railway.rail" priority="20" numLanes="1" speed="44.44" allow="rail" oneway="1"/>
    <type id="railway.subway" priority="18" numLanes="1" speed="27.78" allow="rail_urban" oneway="1"/>
    <type id="railway.tram" priority="17" numLanes="1" speed="13.89" allow="tram" oneway="1"/>

    <edge id=":2025020058_0" function="internal">
        <lane id=":2025020058_0_0" index="0" disallow="tram rail_urban rail rail_electric rail_fast ship" speed="3.65" length="4.67" shape="2177.29,0.39 2176.81,-0.97 2176.13,-1.55 2175.26,-1.36 2174.19,-0.39"/>
    </edge>
    <edge id=":2025020135_0" function="internal">
        <lane id=":2025020135_0_0" index="0" disallow="tram rail_urban rail rail_electric rail_fast ship" speed="3.65" length="4.67" shape="727.40,169.65 726.22,168.81 725.33,168.73 724.72,169.39 724.41,170.79"/>
    </edge>
    <edge id=":2025111183_0" function="internal">
        <lane id=":2025111183_0_0" index="0" disallow="tram rail_urban rail rail_electric rail_fast ship" speed="3.65" length="4.67" shape="1165.78,79.72 1164.78,78.67 1163.93,78.42 1163.21,78.96 1162.63,80.28"/>
    </edge>
    <edge id=":2025111313_0" function="internal">
        <lane id=":2025111313_0_0" index="0" disallow="tram rail_urban rail rail_electric rail_fast ship" speed="3.65" length="4.67" shape="2270.96,294.58 2271.44,293.23 2271.29,292.34 2270.49,291.94 2269.05,292.02"/>
    </edge>
    <edge id=":2025111345_0" function="internal">
        <lane id=":2025111345_0_0" index="0" disallow="tram rail_urban rail rail_electric rail_fast ship" speed="5.56" length="15.52" shape="2034.49,302.56 2032.95,306.07 2031.59,309.75 2030.42,313.51 2029.48,317.22"/>
    </edge>
    <edge id=":2025111345_1" function="internal">
        <lane id=":2025111345_1_0" index="0" disallow="tram rail_urban rail rail_electric rail_fast ship" speed="8.23" length="14.89" shape="2034.49,302.56 2033.37,306.27 2033.81,309.54 2035.80,312.36 2039.34,314.74"/>
    </edge>
    <edge id=":2025111345_2" function="internal">
        <lane id=":2025111345_2_0" index="0" disallow="tram rail_urban rail rail_electric rail_fast ship" speed="3.65" length="4.67" shape="2034.49,302.56 2034.69,303.99 2035.24,304.70 2036.13,304.68 2037.37,303.95"/>
    </edge>
    <edge id=":2025111345_3" function="internal">
        <lane id=":2025111345_3_0" index="0" disallow="tram rail_urban rail rail_electric rail_fast ship" speed="6.79" length="9.79" shape="2040.77,311.88 2038.38,310.30 2037.01,308.45 2036.68,306.33 2037.37,303.95"/>
    </edge>
    <edge id=":2025111345_4" function="internal">
        <lane id=":2025111345_4_0" index="0" disallow="tram rail_urban rail rail_electric rail_fast ship" speed="7.64" length="15.19" shape="2040.77,311.88 2036.67,310.52 2033.42,310.95 2031.03,313.19 2029.48,317.22"/>
    </edge>
    <edge id=":2025111345_5" function="internal">
        <lane id=":2025111345_5_0" index="0" disallow="tram rail_urban rail rail_electric rail_fast ship" speed="3.65" length="4.67" shape="2040.77,311.88 2039.34,312.06 2038.62,312.60 2038.62,313.49 2039.34,314.74"/>
    </edge>
    <edge id=":2025111345_6" function="internal">
        <lane id=":2025111345_6_0" index="0" disallow="tram rail_urban rail rail_electric rail_fast ship" speed="6.05" length="9.07" shape="2032.60,317.93 2033.52,315.52 2034.95,314.19 2036.89,313.93 2039.34,314.74"/>
    </edge>
    <edge id=":2025111345_7" function="internal">
        <lane id=":2025111345_7_0" index="0" disallow="tram rail_urban rail rail_electric rail_fast ship" speed="5.56" length="14.80" shape="2032.60,317.93 2033.51,314.32 2034.59,310.80 2035.87,307.35 2037.37,303.95"/>
    </edge>
    <edge id=":2025111345_8" function="internal">
        <lane id=":2025111345_8_0" index="0" disallow="tram rail_urban rail rail_electric rail_fast ship" speed="3.65" length="4.67" shape="2032.60,317.93 2032.08,316.58 2031.39,316.02 2030.52,316.23 2029.48,317.22"/>
    </edge>
    <edge id=":2025111355_0" function="internal">
        <lane id=":2025111355_0_0" index="0" disallow="tram rail_urban rail rail_electric rail_fast ship" speed="13.89" length="13.66" shape="2081.50,324.72 2078.00,324.16 2074.75,323.62 2071.52,322.99 2068.09,322.13"/>
    </edge>
    <edge id=":2025111355_1" function="internal">
        <lane id=":2025111355_1_0" index="0" disallow="tram rail_urban rail rail_electric rail_fast ship" speed="7.77" length="5.83" shape="2081.50,324.72 2077.50,324.66 2075.83,325.42"/>
    </edge>
    <edge id=":2025111355_2" function="internal">
        <lane id=":2025111355_2_0" index="0" disallow="tram rail_urban rail rail_electric rail_fast ship" speed="3.65" length="2.34" shape="2081.50,324.72 2080.21,325.39 2079.73,326.14"/>
    </edge>
    <edge id=":2025111355_9" function="internal">
        <lane id=":2025111355_9_0" index="0" disallow="tram rail_urban rail rail_electric rail_fast ship" speed="7.77" length="8.80" shape="2075.83,325.42 2074.60,325.98 2072.78,328.70 2072.04,332.81"/>
    </edge>
    <edge id=":2025111355_10" function="internal">
        <lane id=":2025111355_10_0" index="0" disallow="tram rail_urban rail rail_electric rail_fast ship" speed="3.65" length="2.34" shape="2079.73,326.14 2080.04,326.98 2081.14,327.91"/>
    </edge>
    <edge id=":2025111355_3" function="internal">
        <lane id=":2025111355_3_0" index="0" disallow="tram rail_urban rail rail_electric rail_fast ship" speed="6.27" length="9.12" shape="2075.24,332.93 2075.70,330.38 2076.83,328.69 2078.65,327.87 2081.14,327.91"/>
    </edge>
    <edge id=":2025111355_4" function="internal">
        <lane id=":2025111355_4_0" index="0" disallow="tram rail_urban rail rail_electric rail_fast ship" speed="8.76" length="14.12" shape="2075.24,332.93 2074.92,329.00 2073.62,325.88 2071.35,323.59 2068.09,322.13"/>
    </edge>
    <edge id=":2025111355_5" function="internal">
        <lane id=":2025111355_5_0" index="0" disallow="tram rail_urban rail rail_electric rail_fast ship" speed="3.65" length="4.67" shape="2075.24,332.93 2074.49,331.70 2073.70,331.27 2072.89,331.64 2072.04,332.81"/>
    </edge>
    <edge id=":2025111355_6" function="internal">
        <lane id=":2025111355_6_0" index="0" disallow="tram rail_urban rail rail_electric rail_fast ship" speed="7.39" length="9.80" shape="2067.22,325.20 2069.42,326.22 2070.96,327.82 2071.83,330.02 2072.04,332.81"/>
    </edge>
    <edge id=":2025111355_7" function="internal">
        <lane id=":2025111355_7_0" index="0" disallow="tram rail_urban rail rail_electric rail_fast ship" speed="13.89" length="14.19" shape="2067.22,325.20 2070.73,326.08 2074.14,326.76 2077.56,327.33 2081.14,327.91"/>
    </edge>
    <edge id=":2025111355_8" function="internal">
        <lane id=":2025111355_8_0" index="0" disallow="tram rail_urban rail rail_electric rail_fast ship" speed="3.65" length="2.34" shape="2067.22,325.20 2068.60,324.76 2069.20,324.10"/>
    </edge>
    <edge id=":2025111355_11" function="internal">
        <lane id=":2025111355_11_0" index="0" disallow="tram rail_urban rail rail_electric rail_fast ship" speed="3.65" length="2.34" shape="2069.20,324.10 2069.03,323.22 2068.09,322.13"/>
    </edge>
    <edge id=":2025111386_0" function="internal">
        <lane id=":2025111386_0_0" index="0" disallow="tram rail_urban rail rail_electric rail_fast ship" speed="7.67" length="9.90" shape="2126.18,354.94 2123.37,354.64 2121.14,353.72 2119.49,352.19 2118.41,350.03"/>
    </edge>
    <edge id=":2025111386_1" function="internal">
        <lane id=":2025111386_1_0" index="0" disallow="tram rail_urban rail rail_electric rail_fast ship" speed="7.92" length="14.38" shape="2126.18,354.94 2122.25,355.52 2119.51,357.22 2117.96,360.04 2117.60,363.99"/>
    </edge>
    <edge id=":2025111386_2" function="internal">
        <lane id=":2025111386_2_0" index="0" disallow="tram rail_urban rail rail_electric rail_fast ship" speed="3.65" length="4.67" shape="2126.18,354.94 2124.98,355.74 2124.58,356.55 2124.98,357.34 2126.18,358.14"/>
    </edge>
    <edge id=":2025111386_3" function="internal">
        <lane id=":2025111386_3_0" index="0" disallow="tram rail_urban rail rail_electric rail_fast ship" speed="6.40" length="9.04" shape="2120.80,363.83 2121.02,361.35 2122.00,359.57 2123.72,358.50 2126.18,358.14"/>
    </edge>
    <edge id=":2025111386_4" function="internal">
        <lane id=":2025111386_4_0" index="0" disallow="tram rail_urban rail rail_electric rail_fast ship" speed="13.89" length="14.04" shape="2120.80,363.83 2120.53,360.24 2120.08,356.84 2119.39,353.50 2118.41,350.03"/>
    </edge>
    <edge id=":2025111386_5" function="internal">
        <lane id=":2025111386_5_0" index="0" disallow="tram rail_urban rail rail_electric rail_fast ship" speed="3.65" length="2.34" shape="2120.80,363.83 2119.94,362.67 2119.12,362.31"/>
    </edge>
    <edge id=":2025111386_9" function="internal">
        <lane id=":2025111386_9_0" index="0" disallow="tram rail_urban rail rail_electric rail_fast ship" speed="3.65" length="2.34" shape="2119.12,362.31 2118.34,362.75 2117.60,363.99"/>
    </edge>
    <edge id=":2025111386_6" function="internal">
        <lane id=":2025111386_6_0" index="0" disallow="tram rail_urban rail rail_electric rail_fast ship" speed="13.89" length="13.22" shape="2115.36,351.01 2116.32,354.35 2116.96,357.42 2117.36,360.53 2117.60,363.99"/>
    </edge>
    <edge id=":2025111386_7" function="internal">
        <lane id=":2025111386_7_0" index="0" disallow="tram rail_urban rail rail_electric rail_fast ship" speed="9.01" length="5.20" shape="2115.36,351.01 2116.90,354.14 2118.13,355.33"/>
    </edge>
    <edge id=":2025111386_8" function="internal">
        <lane id=":2025111386_8_0" index="0" disallow="tram rail_urban rail rail_electric rail_fast ship" speed="3.65" length="2.34" shape="2115.36,351.01 2116.49,351.91 2117.37,352.05"/>
    </edge>
    <edge id=":2025111386_10" function="internal">
        <lane id=":2025111386_10_0" index="0" disallow="tram rail_urban rail rail_electric rail_fast ship" speed="9.01" length="8.77" shape="2118.13,355.33 2119.21,356.37 2122.31,357.70 2126.18,358.14"/>
    </edge>
    <edge id=":2025111386_11" function="internal">
        <lane id=":2025111386_11_0" index="0" disallow="tram rail_urban rail rail_electric rail_fast ship" speed="3.65" length="2.34" shape="2117.37,352.05 2118.01,351.42 2118.41,350.03"/>
    </edge>
    <edge id=":2025111425_0" function="internal">
        <lane id=":2025111425_0_0" index="0" disallow="tram rail_urban rail rail_electric rail_fast ship" speed="18.69" length="16.53" shape="1867.22,377.79 1863.45,379.22 1859.34,380.58 1855.18,381.46 1851.27,381.44"/>
    </edge>
    <edge id=":2025111425_1" function="internal">
        <lane id=":2025111425_1_0" index="0" disallow="tram rail_urban rail rail_electric rail_fast ship" speed="7.51" length="20.62" shape="1867.22,377.79 1861.19,380.80 1859.20,383.77 1861.26,386.68 1867.37,389.54"/>
    </edge>
    <edge id=":2025111425_2" function="internal">
        <lane id=":2025111425_2_0" index="0" disallow="tram rail_urban rail rail_electric rail_fast ship" speed="3.65" length="4.67" shape="1867.22,377.79 1866.38,378.96 1866.29,379.85 1866.95,380.46 1868.35,380.78"/>
    </edge>
    <edge id=":2025111425_3" function="internal">
        <lane id=":2025111425_3_0" index="0" disallow="tram rail_urban rail rail_electric rail_fast ship" speed="5.46" length="10.07" shape="1868.42,386.52 1865.44,385.12 1864.44,383.70 1865.41,382.25 1868.35,380.78"/>
    </edge>
    <edge id=":2025111425_4" function="internal">
        <lane id=":2025111425_4_0" index="0" disallow="tram rail_urban rail rail_electric rail_fast ship" speed="27.78" length="17.91" shape="1868.42,386.52 1864.44,385.15 1859.92,383.67 1855.36,382.34 1851.27,381.44"/>
    </edge>
    <edge id=":2025111425_5" function="internal">
        <lane id=":2025111425_5_0" index="0" disallow="tram rail_urban rail rail_electric rail_fast ship" speed="3.65" length="2.34" shape="1868.42,386.52 1867.03,386.88 1866.39,387.50"/>
    </edge>
    <edge id=":2025111425_9" function="internal">
        <lane id=":2025111425_9_0" index="0" disallow="tram rail_urban rail rail_electric rail_fast ship" speed="3.65" length="2.34" shape="1866.39,387.50 1866.50,388.39 1867.37,389.54"/>
    </edge>
    <edge id=":2025111425_6" function="internal">
        <lane id=":2025111425_6_0" index="0" disallow="tram rail_urban rail rail_electric rail_fast ship" speed="27.78" length="17.36" shape="1850.74,384.59 1854.76,385.48 1859.14,386.76 1863.47,388.19 1867.37,389.54"/>
    </edge>
    <edge id=":2025111425_7" function="internal">
        <lane id=":2025111425_7_0" index="0" disallow="tram rail_urban rail rail_electric rail_fast ship" speed="19.59" length="5.66" shape="1850.74,384.59 1854.92,384.59 1856.37,384.30"/>
    </edge>
    <edge id=":2025111425_8" function="internal">
        <lane id=":2025111425_8_0" index="0" disallow="tram rail_urban rail rail_electric rail_fast ship" speed="3.65" length="2.34" shape="1850.74,384.59 1852.06,384.00 1852.58,383.28"/>
    </edge>
    <edge id=":2025111425_10" function="internal">
        <lane id=":2025111425_10_0" index="0" disallow="tram rail_urban rail rail_electric rail_fast ship" speed="19.59" length="12.51" shape="1856.37,384.30 1859.64,383.66 1864.32,382.24 1868.35,380.78"/>
    </edge>
    <edge id=":2025111425_11" function="internal">
        <lane id=":2025111425_11_0" index="0" disallow="tram rail_urban rail rail_electric rail_fast ship" speed="3.65" length="2.34" shape="1852.58,383.28 1852.32,382.42 1851.27,381.44"/>
    </edge>
    <edge id=":2025111444_0" function="internal">
        <lane id=":2025111444_0_0" index="0" disallow="tram rail_urban rail rail_electric rail_fast ship" speed="27.78" length="10.86" shape="2150.46,403.55 2139.60,403.26"/>
    </edge>
    <edge id=":2025111444_1" function="internal">
        <lane id=":2025111444_1_0" index="0" disallow="tram rail_urban rail rail_electric rail_fast ship" speed="7.25" length="3.85" shape="2150.46,403.55 2148.07,404.08 2147.06,405.06"/>
    </edge>
    <edge id=":2025111444_2" function="internal">
        <lane id=":2025111444_2_0" index="0" disallow="tram rail_urban rail rail_electric rail_fast ship" speed="3.65" length="2.34" shape="2150.46,403.55 2149.24,404.32 2148.82,405.11"/>
    </edge>
    <edge id=":2025111444_9" function="internal">
        <lane id=":2025111444_9_0" index="0" disallow="tram rail_urban rail rail_electric rail_fast ship" speed="7.25" length="7.81" shape="2147.06,405.06 2146.37,405.73 2145.38,408.50 2145.08,412.39"/>
    </edge>
    <edge id=":2025111444_10" function="internal">
        <lane id=":2025111444_10_0" index="0" disallow="tram rail_urban rail rail_electric rail_fast ship" speed="3.65" length="2.34" shape="2148.82,405.11 2149.21,405.92 2150.39,406.75"/>
    </edge>
    <edge id=":2025111444_3" function="internal">
        <lane id=":2025111444_3_0" index="0" disallow="tram rail_urban rail rail_electric rail_fast ship" speed="5.59" length="6.52" shape="2148.28,412.36 2148.39,409.89 2148.78,408.14 2149.44,407.09 2150.39,406.75"/>
    </edge>
    <edge id=":2025111444_4" function="internal">
        <lane id=":2025111444_4_0" index="0" disallow="tram rail_urban rail rail_electric rail_fast ship" speed="8.14" length="14.20" shape="2148.28,412.36 2147.70,408.49 2146.06,405.68 2143.36,403.94 2139.60,403.26"/>
    </edge>
    <edge id=":2025111444_5" function="internal">
        <lane id=":2025111444_5_0" index="0" disallow="tram rail_urban rail rail_electric rail_fast ship" speed="3.65" length="4.67" shape="2148.28,412.36 2147.47,411.17 2146.66,410.78 2145.87,411.18 2145.08,412.39"/>
    </edge>
    <edge id=":2025111444_6" function="internal">
        <lane id=":2025111444_6_0" index="0" disallow="tram rail_urban rail rail_electric rail_fast ship" speed="6.67" length="9.21" shape="2139.49,406.46 2141.91,406.90 2143.65,408.04 2144.71,409.87 2145.08,412.39"/>
    </edge>
    <edge id=":2025111444_7" function="internal">
        <lane id=":2025111444_7_0" index="0" disallow="tram rail_urban rail rail_electric rail_fast ship" speed="27.78" length="10.90" shape="2139.49,406.46 2150.39,406.75"/>
    </edge>
    <edge id=":2025111444_8" function="internal">
        <lane id=":2025111444_8_0" index="0" disallow="tram rail_urban rail rail_electric rail_fast ship" speed="3.65" length="2.34" shape="2139.49,406.46 2140.72,405.70 2141.15,404.91"/>
    </edge>
    <edge id=":2025111444_11" function="internal">
        <lane id=":2025111444_11_0" index="0" disallow="tram rail_urban rail rail_electric rail_fast ship" speed="3.65" length="2.34" shape="2141.15,404.91 2140.77,404.10 2139.60,403.26"/>
    </edge>
    <edge id=":2025111445_0" function="internal">
        <lane id=":2025111445_0_0" index="0" disallow="tram rail_urban rail rail_electric rail_fast ship" speed="6.26" length="7.25" shape="2153.67,397.34 2153.07,400.07 2152.37,402.01 2151.57,403.17 2150.66,403.55"/>
    </edge>
    <edge id=":2025111445_1" function="internal">
        <lane id=":2025111445_1_0" index="0" disallow="tram rail_urban rail rail_electric rail_fast ship" speed="7.77" length="14.76" shape="2153.67,397.34 2153.55,401.47 2154.82,404.46 2157.49,406.31 2161.55,407.03"/>
    </edge>
    <edge id=":2025111445_2" function="internal">
        <lane id=":2025111445_2_0" index="0" disallow="tram rail_urban rail rail_electric rail_fast ship" speed="3.65" length="4.67" shape="2153.67,397.34 2154.25,398.66 2154.97,399.19 2155.83,398.94 2156.82,397.89"/>
    </edge>
    <edge id=":2025111445_3" function="internal">
        <lane id=":2025111445_3_0" index="0" disallow="tram rail_urban rail rail_electric rail_fast ship" speed="6.22" length="9.05" shape="2161.66,403.83 2159.16,403.39 2157.53,402.26 2156.75,400.42 2156.82,397.89"/>
    </edge>
    <edge id=":2025111445_4" function="internal">
        <lane id=":2025111445_4_0" index="0" disallow="tram rail_urban rail rail_electric rail_fast ship" speed="27.78" length="11.00" shape="2161.66,403.83 2150.66,403.55"/>
    </edge>
    <edge id=":2025111445_5" function="internal">
        <lane id=":2025111445_5_0" index="0" disallow="tram rail_urban rail rail_electric rail_fast ship" speed="3.65" length="2.34" shape="2161.66,403.83 2160.43,404.60 2160.00,405.38"/>
    </edge>
    <edge id=":2025111445_9" function="internal">
        <lane id=":2025111445_9_0" index="0" disallow="tram rail_urban rail rail_electric rail_fast ship" speed="3.65" length="2.34" shape="2160.00,405.38 2160.38,406.19 2161.55,407.03"/>
    </edge>
    <edge id=":2025111445_6" function="internal">
        <lane id=":2025111445_6_0" index="0" disallow="tram rail_urban rail rail_electric rail_fast ship" speed="27.78" length="10.97" shape="2150.59,406.75 2161.55,407.03"/>
    </edge>
    <edge id=":2025111445_7" function="internal">
        <lane id=":2025111445_7_0" index="0" disallow="tram rail_urban rail rail_electric rail_fast ship" speed="7.78" length="3.64" shape="2150.59,406.75 2152.73,406.22 2153.78,405.23"/>
    </edge>
    <edge id=":2025111445_8" function="internal">
        <lane id=":2025111445_8_0" index="0" disallow="tram rail_urban rail rail_electric rail_fast ship" speed="3.65" length="2.34" shape="2150.59,406.75 2151.81,405.97 2152.22,405.18"/>
    </edge>
    <edge id=":2025111445_10" function="internal">
        <lane id=":2025111445_10_0" index="0" disallow="tram rail_urban rail rail_electric rail_fast ship" speed="7.78" length="8.08" shape="2153.78,405.23 2154.48,404.56 2155.85,401.79 2156.82,397.89"/>
    </edge>
    <edge id=":2025111445_11" function="internal">
        <lane id=":2025111445_11_0" index="0" disallow="tram rail_urban rail rail_electric rail_fast ship" speed="3.65" length="2.34" shape="2152.22,405.18 2151.84,404.37 2150.66,403.55"/>
    </edge>
    <edge id=":2025111455_0" function="internal">
        <lane id=":2025111455_0_0" index="0" disallow="tram rail_urban rail rail_electric rail_fast ship" speed="6.82" length="8.87" shape="2118.12,401.33 2117.79,403.75 2116.83,405.59 2115.23,406.85 2113.01,407.52"/>
    </edge>
    <edge id=":2025111455_1" function="internal">
        <lane id=":2025111455_1_0" index="0" disallow="tram rail_urban rail rail_electric rail_fast ship" speed="6.95" length="9.97" shape="2118.12,401.33 2118.32,404.98 2118.97,407.62 2120.06,409.24 2121.59,409.85"/>
    </edge>
    <edge id=":2025111455_2" function="internal">
        <lane id=":2025111455_2_0" index="0" disallow="tram rail_urban rail rail_electric rail_fast ship" speed="3.65" length="4.67" shape="2118.12,401.33 2118.91,402.54 2119.71,402.94 2120.51,402.54 2121.32,401.34"/>
    </edge>
    <edge id=":2025111455_3" function="internal">
        <lane id=":2025111455_3_0" index="0" disallow="tram rail_urban rail rail_electric rail_fast ship" speed="5.34" length="5.48" shape="2121.79,406.66 2121.29,405.94 2121.18,404.35 2121.25,402.59 2121.32,401.34"/>
    </edge>
    <edge id=":2025111455_4" function="internal">
        <lane id=":2025111455_4_0" index="0" disallow="tram rail_urban rail rail_electric rail_fast ship" speed="27.78" length="8.86" shape="2121.79,406.66 2119.17,406.59 2117.38,406.74 2115.60,407.07 2113.01,407.52"/>
    </edge>
    <edge id=":2025111455_5" function="internal">
        <lane id=":2025111455_5_0" index="0" disallow="tram rail_urban rail rail_electric rail_fast ship" speed="3.65" length="2.34" shape="2121.79,406.66 2120.54,407.38 2120.09,408.16"/>
    </edge>
    <edge id=":2025111455_9" function="internal">
        <lane id=":2025111455_9_0" index="0" disallow="tram rail_urban rail rail_electric rail_fast ship" speed="3.65" length="2.34" shape="2120.09,408.16 2120.45,408.98 2121.59,409.85"/>
    </edge>
    <edge id=":2025111455_6" function="internal">
        <lane id=":2025111455_6_0" index="0" disallow="tram rail_urban rail rail_electric rail_fast ship" speed="27.78" length="8.19" shape="2113.48,410.68 2115.88,410.26 2117.52,409.95 2119.18,409.79 2121.59,409.85"/>
    </edge>
    <edge id=":2025111455_7" function="internal">
        <lane id=":2025111455_7_0" index="0" disallow="tram rail_urban rail rail_electric rail_fast ship" speed="8.28" length="5.90" shape="2113.48,410.68 2116.90,409.66 2118.74,408.23"/>
    </edge>
    <edge id=":2025111455_8" function="internal">
        <lane id=":2025111455_8_0" index="0" disallow="tram rail_urban rail rail_electric rail_fast ship" speed="3.65" length="2.34" shape="2113.48,410.68 2114.55,409.71 2114.82,408.86"/>
    </edge>
    <edge id=":2025111455_10" function="internal">
        <lane id=":2025111455_10_0" index="0" disallow="tram rail_urban rail rail_electric rail_fast ship" speed="8.28" length="7.59" shape="2118.74,408.23 2119.34,407.76 2120.82,404.99 2121.32,401.34"/>
    </edge>
    <edge id=":2025111455_11" function="internal">
        <lane id=":2025111455_11_0" index="0" disallow="tram rail_urban rail rail_electric rail_fast ship" speed="3.65" length="2.34" shape="2114.82,408.86 2114.31,408.13 2113.01,407.52"/>
    </edge>
    <edge id=":2025111470_0" function="internal">
        <lane id=":2025111470_0_0" index="0" disallow="tram rail_urban rail rail_electric rail_fast ship" speed="9.30" length="13.24" shape="2063.29,411.26 2062.46,414.87 2060.94,417.74 2058.73,419.87 2055.82,421.25"/>
    </edge>
    <edge id=":2025111470_1" function="internal">
        <lane id=":2025111470_1_0" index="0" disallow="tram rail_urban rail rail_electric rail_fast ship" speed="7.46" length="15.55" shape="2063.29,411.26 2063.29,416.11 2064.68,419.24 2067.46,420.64 2071.61,420.31"/>
    </edge>
    <edge id=":2025111470_2" function="internal">
        <lane id=":2025111470_2_0" index="0" disallow="tram rail_urban rail rail_electric rail_fast ship" speed="3.76" length="4.74" shape="2063.29,411.26 2063.66,412.67 2064.30,413.32 2065.20,413.20 2066.36,412.30"/>
    </edge>
    <edge id=":2025111470_3" function="internal">
        <lane id=":2025111470_3_0" index="0" disallow="tram rail_urban rail rail_electric rail_fast ship" speed="5.62" length="9.29" shape="2070.85,417.20 2068.05,417.52 2066.37,416.81 2065.80,415.07 2066.36,412.30"/>
    </edge>
    <edge id=":2025111470_4" function="internal">