<?xml version="1.0" encoding="UTF-8"?>

<!-- generated on Mon Nov 23 14:22:11 2020 by Eclipse SUMO duarouter Version 1.7.0
<configuration xmlns:xsi="http://www.w3.org/2001/XMLSchema-instance" xsi:noNamespaceSchemaLocation="http://sumo.dlr.de/xsd/duarouterConfiguration.xsd">

    <input>
        <net-file value="/home/manas/Sumo/2020-11-23-14-22-03/osm.net.xml"/>
        <route-files value="/home/manas/Sumo/2020-11-23-14-22-03/osm.passenger.trips.xml"/>
    </input>

    <output>
        <output-file value="/home/manas/Sumo/2020-11-23-14-22-03/osm.passenger.trips.xml.tmp"/>
        <write-trips value="true"/>
    </output>

    <time>
        <begin value="0"/>
        <end value="1000"/>
    </time>

    <report>
        <no-warnings value="true"/>
        <ignore-errors value="true"/>
        <no-step-log value="true"/>
    </report>

</configuration>
-->

<routes xmlns:xsi="http://www.w3.org/2001/XMLSchema-instance" xsi:noNamespaceSchemaLocation="http://sumo.dlr.de/xsd/routes_file.xsd">
    <vType id="veh_passenger" vClass="passenger"/>
    <trip id="veh0" type="veh_passenger" depart="0.00" departLane="best" from="-369835574#2" to="-369665651#0"/>
    <trip id="veh1" type="veh_passenger" depart="0.68" departLane="best" from="369673289#1" to="369518896#0"/>
    <trip id="veh2" type="veh_passenger" depart="1.36" departLane="best" from="369855656#5" to="-191953150#25"/>
    <trip id="veh3" type="veh_passenger" depart="2.04" departLane="best" from="-369999835#1" to="-191953049#3"/>
    <trip id="veh4" type="veh_passenger" depart="2.72" departLane="best" from="-369665646#1" to="191953049#10"/>
    <trip id="veh5" type="veh_passenger" depart="3.40" departLane="best" from="-191953049#11" to="-369665627#6"/>
    <trip id="veh6" type="veh_passenger" depart="4.08" departLane="best" from="-369665646#2" to="191953150#7"/>
    <trip id="veh7" type="veh_passenger" depart="4.76" departLane="best" from="369835613#0" to="-191953031#12"/>
    <trip id="veh8" type="veh_passenger" depart="5.44" departLane="best" from="369835605" to="369665626#0"/>
    <trip id="veh9" type="veh_passenger" depart="6.13" departLane="best" from="-369835640#0" to="-369518892"/>
    <trip id="veh10" type="veh_passenger" depart="6.81" departLane="best" from="369999895#0" to="-369835636#4"/>
    <trip id="veh11" type="veh_passenger" depart="7.49" departLane="best" from="369835636#5" to="191953198"/>
    <trip id="veh12" type="veh_passenger" depart="8.17" departLane="best" from="369835606" to="369665646#1"/>
    <trip id="veh14" type="veh_passenger" depart="9.53" departLane="best" from="-369855656#4" to="191953137#3"/>
    <trip id="veh15" type="veh_passenger" depart="10.21" departLane="best" from="369835626" to="362202277#0"/>
    <trip id="veh16" type="veh_passenger" depart="10.89" departLane="best" from="369835643#2" to="191953150#22"/>
    <trip id="veh17" type="veh_passenger" depart="11.57" departLane="best" from="369665632#0" to="-191953096#1"/>
    <trip id="veh18" type="veh_passenger" depart="12.25" departLane="best" from="-369665653#1" to="-369835592#1"/>
    <trip id="veh19" type="veh_passenger" depart="12.93" departLane="best" from="-191953150#19" to="-369673288"/>
    <trip id="veh20" type="veh_passenger" depart="13.61" departLane="best" from="-191953155" to="-369835576#0"/>
    <trip id="veh21" type="veh_passenger" depart="14.29" departLane="best" from="369518871#3" to="-369835646#3"/>
    <trip id="veh22" type="veh_passenger" depart="14.97" departLane="best" from="-369855654#2" to="-369665632#2"/>
    <trip id="veh23" type="veh_passenger" depart="15.65" departLane="best" from="369518890#2" to="191953198"/>
    <trip id="veh24" type="veh_passenger" depart="16.33" departLane="best" from="-369518895#1" to="-369855656#4"/>
    <trip id="veh25" type="veh_passenger" depart="17.02" departLane="best" from="370134726#2" to="369518866"/>
    <trip id="veh26" type="veh_passenger" depart="17.70" departLane="best" from="191953143#2" to="369665623#1"/>
    <trip id="veh27" type="veh_passenger" depart="18.38" departLane="best" from="369835636#2" to="369676971"/>
    <trip id="veh28" type="veh_passenger" depart="19.06" departLane="best" from="-369665637" to="369999818"/>
    <trip id="veh29" type="veh_passenger" depart="19.74" departLane="best" from="369518894#1" to="-369855687#1"/>
    <trip id="veh30" type="veh_passenger" depart="20.42" departLane="best" from="-369835568#5" to="-369673302#2"/>
    <trip id="veh31" type="veh_passenger" depart="21.10" departLane="best" from="191953150#10" to="-369835568#3"/>
    <trip id="veh32" type="veh_passenger" depart="21.78" departLane="best" from="191953150#28" to="369855654#3"/>
    <trip id="veh33" type="veh_passenger" depart="22.46" departLane="best" from="-369855689" to="-369665646#1"/>
    <trip id="veh34" type="veh_passenger" depart="23.14" departLane="best" from="-191953150#3" to="-191953097"/>
    <trip id="veh35" type="veh_passenger" depart="23.82" departLane="best" from="-362202277#0" to="362206532#0"/>
    <trip id="veh36" type="veh_passenger" depart="24.50" departLane="best" from="-191953150#0" to="-369855656#5"/>
    <trip id="veh37" type="veh_passenger" depart="25.18" departLane="best" from="704625031#0" to="191953094"/>
    <trip id="veh38" type="veh_passenger" depart="25.86" departLane="best" from="370006687#0" to="369835636#4"/>
    <trip id="veh39" type="veh_passenger" depart="26.54" departLane="best" from="369665625" to="191953094"/>
    <trip id="veh40" type="veh_passenger" depart="27.22" departLane="best" from="-369835570#0" to="369518869"/>
    <trip id="veh41" type="veh_passenger" depart="27.90" departLane="best" from="-362202278" to="-369999890#1"/>
    <trip id="veh42" type="veh_passenger" depart="28.59" departLane="best" from="-370006687#3" to="369999890#1"/>
    <trip id="veh43" type="veh_passenger" depart="29.27" departLane="best" from="191953031#12" to="-369665623#4"/>
    <trip id="veh44" type="veh_passenger" depart="29.95" departLane="best" from="369855689" to="369835641#0"/>
    <trip id="veh45" type="veh_passenger" depart="30.63" departLane="best" from="-369835602" to="369518865"/>
    <trip id="veh46" type="veh_passenger" depart="31.31" departLane="best" from="362202385#1" to="-369518890#3"/>
    <trip id="veh47" type="veh_passenger" depart="31.99" departLane="best" from="369676971" to="191953096#1"/>
    <trip id="veh48" type="veh_passenger" depart="32.67" departLane="best" from="369835574#1" to="191953094"/>
    <trip id="veh49" type="veh_passenger" depart="33.35" departLane="best" from="-191953031#0" to="-369835628#0"/>
    <trip id="veh50" type="veh_passenger" depart="34.03" departLane="best" from="-191953036#0" to="369855690#1"/>
    <trip id="veh51" type="veh_passenger" depart="34.71" departLane="best" from="-369835613#4" to="-191953137#2"/>
    <trip id="veh52" type="veh_passenger" depart="35.39" departLane="best" from="369855654#0" to="369999849#0"/>
    <trip id="veh53" type="veh_passenger" depart="36.07" departLane="best" from="-191953150#23" to="191953031#12"/>
    <trip id="veh54" type="veh_passenger" depart="36.75" departLane="best" from="369835568#2" to="-369518866"/>
    <trip id="veh55" type="veh_passenger" depart="37.43" departLane="best" from="191953096#0" to="369665646#1"/>
    <trip id="veh56" type="veh_passenger" depart="38.11" departLane="best" from="-369665627#9" to="-369835613#6"/>
    <trip id="veh57" type="veh_passenger" depart="38.79" departLane="best" from="370135671" to="369518871#3"/>
    <trip id="veh58" type="veh_passenger" depart="39.48" departLane="best" from="-369999900#0" to="191953082#0"/>
    <trip id="veh59" type="veh_passenger" depart="40.16" departLane="best" from="-369507183" to="-369665651#1"/>
    <trip id="veh60" type="veh_passenger" depart="40.84" departLane="best" from="-369835636#5" to="191953150#6"/>
    <trip id="veh61" type="veh_passenger" depart="41.52" departLane="best" from="-369673284" to="-369665646#2"/>
    <trip id="veh62" type="veh_passenger" depart="42.20" departLane="best" from="-191953150#13" to="362206705"/>
    <trip id="veh63" type="veh_passenger" depart="42.88" departLane="best" from="-369673282" to="369855656#4"/>
    <trip id="veh64" type="veh_passenger" depart="43.56" departLane="best" from="369835643#0" to="-191953150#13"/>
    <trip id="veh65" type="veh_passenger" depart="44.24" departLane="best" from="-369673291" to="369518894#0"/>
    <trip id="veh66" type="veh_passenger" depart="44.92" departLane="best" from="-369665643" to="-369518870#1"/>
    <trip id="veh67" type="veh_passenger" depart="45.60" departLane="best" from="369999771#0" to="191953150#17"/>
    <trip id="veh68" type="veh_passenger" depart="46.28" departLane="best" from="-370135671" to="369835568#5"/>
    <trip id="veh69" type="veh_passenger" depart="46.96" departLane="best" from="369835606" to="-369665627#1"/>
    <trip id="veh70" type="veh_passenger" depart="47.64" departLane="best" from="-191953150#8" to="-369999857#1"/>
    <trip id="veh71" type="veh_passenger" depart="48.32" departLane="best" from="370006845#1" to="-191953150#9"/>
    <trip id="veh72" type="veh_passenger" depart="49.00" departLane="best" from="-369855690#3" to="-369835636#5"/>
    <trip id="veh73" type="veh_passenger" depart="49.68" departLane="best" from="369835643#2" to="-369673303"/>
    <trip id="veh74" type="veh_passenger" depart="50.36" departLane="best" from="-369665627#11" to="-369999904#1"/>
    <trip id="veh75" type="veh_passenger" depart="51.05" departLane="best" from="-369673306#0" to="369855687#2"/>
    <trip id="veh76" type="veh_passenger" depart="51.73" departLane="best" from="704625221" to="369835620"/>
    <trip id="veh77" type="veh_passenger" depart="52.41" departLane="best" from="369999904#0" to="369855689"/>
    <trip id="veh78" type="veh_passenger" depart="53.09" departLane="best" from="369835636#6" to="-369518896#1"/>
    <trip id="veh79" type="veh_passenger" depart="53.77" departLane="best" departSpeed="max" from="191943558" to="-369665643"/>
    <trip id="veh80" type="veh_passenger" depart="54.45" departLane="best" from="-369855690#1" to="-191953137#3"/>
    <trip id="veh81" type="veh_passenger" depart="55.13" departLane="best" from="-369855656#4" to="370134725"/>
    <trip id="veh82" type="veh_passenger" depart="55.81" departLane="best" from="-370006720" to="-369999835#1"/>
    <trip id="veh83" type="veh_passenger" depart="56.49" departLane="best" from="369999895#0" to="704625031#0"/>
    <trip id="veh84" type="veh_passenger" depart="57.17" departLane="best" from="191953143#0" to="369665628#1"/>
    <trip id="veh85" type="veh_passenger" depart="57.85" departLane="best" from="-369518892" to="-369835601"/>
    <trip id="veh86" type="veh_passenger" depart="58.53" departLane="best" from="191953097" to="369673288"/>
    <trip id="veh87" type="veh_passenger" depart="59.21" departLane="best" from="191953031#4" to="369835635"/>
    <trip id="veh88" type="veh_passenger" depart="59.89" departLane="best" from="-369518894#0" to="369999900#0"/>
    <trip id="veh89" type="veh_passenger" depart="60.57" departLane="best" from="369855656#4" to="-369673302#2"/>
    <trip id="veh90" type="veh_passenger" depart="61.25" departLane="best" from="191953155" to="362202277#1"/>
    <trip id="veh91" type="veh_passenger" depart="61.94" departLane="best" from="-369999818" to="191953150#28"/>
    <trip id="veh92" type="veh_passenger" depart="62.62" departLane="best" from="191953049#3" to="369999771#0"/>
    <trip id="veh93" type="veh_passenger" depart="63.30" departLane="best" from="-369673291" to="-369855687#1"/>
    <trip id="veh94" type="veh_passenger" depart="63.98" departLane="best" from="369665623#10" to="-369835605"/>
    <trip id="veh95" type="veh_passenger" depart="64.66" departLane="best" from="-369835623" to="369673290"/>
    <trip id="veh96" type="veh_passenger" depart="65.34" departLane="best" from="-191953150#14" to="-370006728"/>
    <trip id="veh97" type="veh_passenger" depart="66.02" departLane="best" from="-191953150#14" to="-369665640"/>
    <trip id="veh98" type="veh_passenger" depart="66.70" departLane="best" from="369855654#2" to="369835643#4"/>
    <trip id="veh99" type="veh_passenger" depart="67.38" departLane="best" from="-369855654#2" to="-369518894#0"/>
    <trip id="veh100" type="veh_passenger" depart="68.06" departLane="best" from="369835628#1" to="369665627#11"/>
    <trip id="veh101" type="veh_passenger" depart="68.74" departLane="best" from="362202386#1" to="370134725"/>
    <trip id="veh102" type="veh_passenger" depart="69.42" departLane="best" from="369518894#0" to="-191953031#2"/>
    <trip id="veh103" type="veh_passenger" depart="70.10" departLane="best" from="369835613#6" to="-369835602"/>
    <trip id="veh104" type="veh_passenger" depart="70.78" departLane="best" from="369518896#1" to="369999771#3"/>
    <trip id="veh105" type="veh_passenger" depart="71.46" departLane="best" from="-369518871#0" to="-362202386#1"/>
    <trip id="veh106" type="veh_passenger" depart="72.14" departLane="best" from="-369835574#0" to="191953198"/>
    <trip id="veh107" type="veh_passenger" depart="72.82" departLane="best" from="369518871#2" to="-369835568#3"/>
    <trip id="veh108" type="veh_passenger" depart="73.51" departLane="best" departSpeed="max" from="191943558" to="369855656#4"/>
    <trip id="veh109" type="veh_passenger" depart="74.19" departLane="best" from="369835636#4" to="-191953150#4"/>
    <trip id="veh110" type="veh_passenger" depart="74.87" departLane="best" from="-369999848" to="-369835576#0"/>
    <trip id="veh111" type="veh_passenger" depart="75.55" departLane="best" from="-191953031#10" to="369673306#0"/>
    <trip id="veh112" type="veh_passenger" depart="76.23" departLane="best" from="369518873" to="-369835568#2"/>
    <trip id="veh113" type="veh_passenger" depart="76.91" departLane="best" from="-369999857#0" to="-191953031#4"/>
    <trip id="veh114" type="veh_passenger" depart="77.59" departLane="best" from="-191953150#16" to="369835645#1"/>
    <trip id="veh115" type="veh_passenger" depart="78.27" departLane="best" from="369855686" to="191953120"/>
    <trip id="veh116" type="veh_passenger" depart="78.95" departLane="best" from="-369673305#0" to="-191953178#0"/>
    <trip id="veh117" type="veh_passenger" depart="79.63" departLane="best" from="-369999771#1" to="362202278"/>
    <trip id="veh118" type="veh_passenger" depart="80.31" departLane="best" from="-369518890#4" to="369855690#3"/>
    <trip id="veh119" type="veh_passenger" depart="80.99" departLane="best" from="369835643#4" to="370006687#3"/>
    <trip id="veh120" type="veh_passenger" depart="81.67" departLane="best" from="-191953049#10" to="369665651#1"/>
    <trip id="veh121" type="veh_passenger" depart="82.35" departLane="best" from="-369835636#1" to="369855690#3"/>
    <trip id="veh122" type="veh_passenger" depart="83.03" departLane="best" from="369835580" to="-191953191#2"/>
    <trip id="veh123" type="veh_passenger" depart="83.71" departLane="best" from="-369665651#0" to="369835600"/>
    <trip id="veh124" type="veh_passenger" depart="84.40" departLane="best" from="-370006734" to="-369835613#1"/>
    <trip id="veh125" type="veh_passenger" depart="85.08" departLane="best" from="369835592#1" to="-369665653#1"/>
    <trip id="veh126" type="veh_passenger" depart="85.76" departLane="best" from="-191953049#1" to="-369665627#12"/>
    <trip id="veh127" type="veh_passenger" depart="86.44" departLane="best" from="369518879" to="-369855689"/>
    <trip id="veh128" type="veh_passenger" depart="87.12" departLane="best" from="370006762#1" to="191953094"/>
    <trip id="veh129" type="veh_passenger" depart="87.80" departLane="best" from="369999771#3" to="-362202386#1"/>
    <trip id="veh130" type="veh_passenger" depart="88.48" departLane="best" from="369999904#1" to="-369665623#4"/>
    <trip id="veh131" type="veh_passenger" depart="89.16" departLane="best" from="-191953191#2" to="-369999890#0"/>
    <trip id="veh132" type="veh_passenger" depart="89.84" departLane="best" from="362202277#1" to="191953049#5"/>
    <trip id="veh133" type="veh_passenger" depart="90.52" departLane="best" from="-369855669#0" to="191953150#22"/>
    <trip id="veh134" type="veh_passenger" depart="91.20" departLane="best" from="-191953031#1" to="369855687#3"/>
    <trip id="veh136" type="veh_passenger" depart="92.56" departLane="best" from="369673294" to="369518894#1"/>
    <trip id="veh137" type="veh_passenger" depart="93.24" departLane="best" from="-369835646#3" to="-191953150#12"/>
    <trip id="veh138" type="veh_passenger" depart="93.92" departLane="best" from="369518896#1" to="-369835635"/>
    <trip id="veh139" type="veh_passenger" depart="94.60" departLane="best" from="-369835616" to="369835628#1"/>
    <trip id="veh140" type="veh_passenger" depart="95.29" departLane="best" from="369665646#3" to="-369835605"/>
    <trip id="veh141" type="veh_passenger" depart="95.97" departLane="best" from="-369855690#3" to="-369835600"/>
    <trip id="veh142" type="veh_passenger" depart="96.65" departLane="best" from="-369518866" to="-369999818"/>
    <trip id="veh143" type="veh_passenger" depart="97.33" departLane="best" from="369999788" to="369518896#0"/>
    <trip id="veh144" type="veh_passenger" depart="98.01" departLane="best" from="369855684#1" to="191953198"/>
    <trip id="veh145" type="veh_passenger" depart="98.69" departLane="best" from="-369835606" to="191953121"/>
    <trip id="veh146" type="veh_passenger" depart="99.37" departLane="best" from="-191953031#0" to="-369835590"/>
    <trip id="veh147" type="veh_passenger" depart="100.05" departLane="best" from="369518894#0" to="-370006762#1"/>
    <trip id="veh148" type="veh_passenger" depart="100.73" departLane="best" from="-369999900#3" to="-369665643"/>
    <trip id="veh149" type="veh_passenger" depart="101.41" departLane="best" from="-370135671" to="369855656#1"/>
    <trip id="veh150" type="veh_passenger" depart="102.09" departLane="best" from="369835592#1" to="-369518898"/>
    <trip id="veh151" type="veh_passenger" depart="102.77" departLane="best" from="-191953150#23" to="191953049#9"/>
    <trip id="veh152" type="veh_passenger" depart="103.45" departLane="best" from="369518871#1" to="-369835636#3"/>
    <trip id="veh153" type="veh_passenger" depart="104.13" departLane="best" from="369835613#7" to="369673289#1"/>
    <trip id="veh154" type="veh_passenger" depart="104.81" departLane="best" from="-369665627#7" to="-191953049#1"/>
    <trip id="veh155" type="veh_passenger" depart="105.49" departLane="best" from="-369673302#1" to="-704625031#0"/>
    <trip id="veh156" type="veh_passenger" depart="106.17" departLane="best" from="369835636#6" to="-191953150#14"/>
    <trip id="veh157" type="veh_passenger" depart="106.86" departLane="best" from="-369999797" to="362206532#2"/>
    <trip id="veh158" type="veh_passenger" depart="107.54" departLane="best" from="191953031#0" to="-369673302#0"/>
    <trip id="veh159" type="veh_passenger" depart="108.22" departLane="best" from="369518894#1" to="-191953031#11"/>
    <trip id="veh160" type="veh_passenger" depart="108.90" departLane="best" from="-191953191#0" to="-369999848"/>
    <trip id="veh161" type="veh_passenger" depart="109.58" departLane="best" from="191953049#10" to="-191953103#1"/>
    <trip id="veh162" type="veh_passenger" depart="110.26" departLane="best" from="-369673305#0" to="369835628#1"/>
    <trip id="veh163" type="veh_passenger" depart="110.94" departLane="best" from="-370006728" to="369835576#5"/>
    <trip id="veh164" type="veh_passenger" depart="111.62" departLane="best" from="369529057" to="370134726#0"/>
    <trip id="veh165" type="veh_passenger" depart="112.30" departLane="best" from="191953155" to="369999857#1"/>
    <trip id="veh166" type="veh_passenger" depart="112.98" departLane="best" from="369855656#5" to="191953198"/>
    <trip id="veh167" type="veh_passenger" depart="113.66" departLane="best" from="369665646#3" to="191953049#10"/>
    <trip id="veh168" type="veh_passenger" depart="114.34" departLane="best" from="369835627#0" to="191953121"/>
    <trip id="veh169" type="veh_passenger" depart="115.02" departLane="best" from="369855669#0" to="369673282"/>
    <trip id="veh170" type="veh_passenger" depart="115.70" departLane="best" from="-704625031#0" to="-369835568#0"/>
    <trip id="veh171" type="veh_passenger" depart="116.38" departLane="best" from="-369673303" to="369518865"/>
    <trip id="veh172" type="veh_passenger" depart="117.06" departLane="best" from="369835568#2" to="191953085#1"/>
    <trip id="veh173" type="veh_passenger" depart="117.75" departLane="best" from="369518869" to="-369835574#1"/>
    <trip id="veh174" type="veh_passenger" depart="118.43" departLane="best" from="-191953150#17" to="-369835590"/>
    <trip id="veh175" type="veh_passenger" depart="119.11" departLane="best" from="-369673288" to="369665623#8"/>
    <trip id="veh176" type="veh_passenger" depart="119.79" departLane="best" from="369665632#2" to="-191953150#0"/>
    <trip id="veh177" type="veh_passenger" depart="120.47" departLane="best" from="-369999771#2" to="191953103#0"/>
    <trip id="veh178" type="veh_passenger" depart="121.15" departLane="best" from="191953150#28" to="369665623#9"/>
    <trip id="veh179" type="veh_passenger" depart="121.83" departLane="best" from="369835641#1" to="369673304"/>
    <trip id="veh180" type="veh_passenger" depart="122.51" departLane="best" from="-369855656#5" to="-191953031#11"/>
    <trip id="veh181" type="veh_passenger" depart="123.19" departLane="best" from="-369999818" to="369673288"/>
    <trip id="veh182" type="veh_passenger" depart="123.87" departLane="best" from="191953103#1" to="191953198"/>
    <trip id="veh183" type="veh_passenger" depart="124.55" departLane="best" from="-369999891#0" to="-191953049#2"/>
    <trip id="veh184" type="veh_passenger" depart="125.23" departLane="best" from="-369835636#4" to="369518898"/>
    <trip id="veh185" type="veh_passenger" depart="125.91" departLane="best" from="-369999771#0" to="-369518896#0"/>
    <trip id="veh186" type="veh_passenger" depart="126.59" departLane="best" from="-370134726#0" to="-369518866"/>
    <trip id="veh187" type="veh_passenger" depart="127.27" departLane="best" from="369507193" to="-191953049#11"/>
    <trip id="veh188" type="veh_passenger" depart="127.95" departLane="best" from="-369855687#1" to="191953150#13"/>
    <trip id="veh189" type="veh_passenger" depart="128.63" departLane="best" from="-191953049#11" to="369518870#0"/>
    <trip id="veh190" type="veh_passenger" depart="129.32" departLane="best" from="-369518871#1" to="-370006734"/>
    <trip id="veh191" type="veh_passenger" depart="130.00" departLane="best" from="-191953103#1" to="-369855656#3"/>
    <trip id="veh192" type="veh_passenger" depart="130.68" departLane="best" from="-369665640" to="-369835628#1"/>
    <trip id="veh193" type="veh_passenger" depart="131.36" departLane="best" from="369676971" to="-369855656#3"/>
    <trip id="veh194" type="veh_passenger" depart="132.04" departLane="best" from="369673305#0" to="369835613#6"/>
    <trip id="veh195" type="veh_passenger" depart="132.72" departLane="best" from="-191953036#0" to="191953096#1"/>
    <trip id="veh196" type="veh_passenger" depart="133.40" departLane="best" from="704625221" to="-369835643#0"/>
    <trip id="veh197" type="veh_passenger" depart="134.08" departLane="best" from="369518890#3" to="369835568#2"/>
    <trip id="veh198" type="veh_passenger" depart="134.76" departLane="best" from="369518890#4" to="369673292"/>
    <trip id="veh199" type="veh_passenger" depart="135.44" departLane="best" from="369999857#1" to="-369665627#6"/>
    <trip id="veh200" type="veh_passenger" depart="136.12" departLane="best" from="-191953036#1" to="-369518890#3"/>
    <trip id="veh201" type="veh_passenger" depart="136.80" departLane="best" from="-369518865" to="369518894#0"/>
    <trip id="veh202" type="veh_passenger" depart="137.48" departLane="best" from="191953150#12" to="-369665646#0"/>
    <trip id="veh203" type="veh_passenger" depart="138.16" departLane="best" from="-369518897" to="191953198"/>
    <trip id="veh204" type="veh_passenger" depart="138.84" departLane="best" from="369673302#2" to="-362202386#0"/>
    <trip id="veh205" type="veh_passenger" depart="139.52" departLane="best" from="369835616" to="369999902#0"/>
    <trip id="veh206" type="veh_passenger" depart="140.21" departLane="best" from="-191953191#2" to="-191953049#10"/>
    <trip id="veh207" type="veh_passenger" depart="140.89" departLane="best" from="-369835613#7" to="369518896#0"/>
    <trip id="veh208" type="veh_passenger" depart="141.57" departLane="best" from="369999895#0" to="-369855687#2"/>
    <trip id="veh209" type="veh_passenger" depart="142.25" departLane="best" from="369665646#0" to="-191953150#16"/>
    <trip id="veh210" type="veh_passenger" depart="142.93" departLane="best" from="-191953178#0" to="369673306#1"/>
    <trip id="veh211" type="veh_passenger" depart="143.61" departLane="best" from="369835640#0" to="191953178#4"/>
    <trip id="veh212" type="veh_passenger" depart="144.29" departLane="best" from="-369507183" to="370006845#1"/>
    <trip id="veh213" type="veh_passenger" depart="144.97" departLane="best" from="-369999857#0" to="-369855654#2"/>
    <trip id="veh214" type="veh_passenger" depart="145.65" departLane="best" from="191953031#6" to="-369835640#0"/>
    <trip id="veh215" type="veh_passenger" depart="146.33" departLane="best" from="-191953178#3" to="369999900#0"/>
    <trip id="veh216" type="veh_passenger" depart="147.01" departLane="best" from="369518871#3" to="369835613#4"/>
    <trip id="veh217" type="veh_passenger" depart="147.69" departLane="best" from="369665632#2" to="-369999890#1"/>
    <trip id="veh218" type="veh_passenger" depart="148.37" departLane="best" from="369673289#0" to="369999902#0"/>
    <trip id="veh220" type="veh_passenger" depart="149.73" departLane="best" from="-369999891#0" to="369665646#1"/>
    <trip id="veh221" type="veh_passenger" depart="150.41" departLane="best" from="369835627#0" to="-191953150#25"/>
    <trip id="veh222" type="veh_passenger" depart="151.09" departLane="best" from="369855654#2" to="-369673302#0"/>
    <trip id="veh223" type="veh_passenger" depart="151.78" departLane="best" from="-370006845#0" to="191953198"/>
    <trip id="veh224" type="veh_passenger" depart="152.46" departLane="best" from="-369855656#4" to="-191953049#2"/>
    <trip id="veh225" type="veh_passenger" depart="153.14" departLane="best" from="-369665640" to="369835576#2"/>
    <trip id="veh226" type="veh_passenger" depart="153.82" departLane="best" from="-369835640#0" to="369835645#0"/>
    <trip id="veh227" type="veh_passenger" depart="154.50" departLane="best" from="369665627#9" to="-369835574#2"/>
    <trip id="veh228" type="veh_passenger" depart="155.18" departLane="best" from="-191953031#4" to="369999849#1"/>
    <trip id="veh229" type="veh_passenger" depart="155.86" departLane="best" from="-191953150#23" to="369665632#0"/>
    <trip id="veh230" type="veh_passenger" depart="156.54" departLane="best" departSpeed="max" from="191943558" to="369673298"/>
    <trip id="veh231" type="veh_passenger" depart="157.22" departLane="best" from="369665627#11" to="369518871#0"/>
    <trip id="veh232" type="veh_passenger" depart="157.90" departLane="best" departSpeed="max" from="191943558" to="369835574#1"/>
    <trip id="veh233" type="veh_passenger" depart="158.58" departLane="best" from="-191953150#4" to="-369665646#3"/>
    <trip id="veh234" type="veh_passenger" depart="159.26" departLane="best" from="369665627#12" to="-369835613#2"/>
    <trip id="veh235" type="veh_passenger" depart="159.94" departLane="best" from="191953150#25" to="-370135671"/>
    <trip id="veh236" type="veh_passenger" depart="160.62" departLane="best" from="369673302#1" to="-369835636#0"/>
    <trip id="veh237" type="veh_passenger" depart="161.30" departLane="best" from="369665628#0" to="-369835570#3"/>
    <trip id="veh238" type="veh_passenger" depart="161.98" departLane="best" from="-369673306#1" to="-362209624"/>
    <trip id="veh239" type="veh_passenger" depart="162.67" departLane="best" from="-369665627#12" to="-362206705"/>
    <trip id="veh240" type="veh_passenger" depart="163.35" departLane="best" from="191953085#1" to="369673302#2"/>
    <trip id="veh241" type="veh_passenger" depart="164.03" departLane="best" from="-369665623#9" to="-369665645"/>
    <trip id="veh242" type="veh_passenger" depart="164.71" departLane="best" departSpeed="max" from="191943558" to="369665640"/>
    <trip id="veh243" type="veh_passenger" depart="165.39" departLane="best" from="370006687#3" to="191953094"/>
    <trip id="veh244" type="veh_passenger" depart="166.07" departLane="best" from="-369835580" to="-191953155"/>
    <trip id="veh245" type="veh_passenger" depart="166.75" departLane="best" from="-369665623#5" to="-191953031#7"/>
    <trip id="veh246" type="veh_passenger" depart="167.43" departLane="best" from="191953085#0" to="-369835574#1"/>
    <trip id="veh247" type="veh_passenger" depart="168.11" departLane="best" from="369665627#6" to="-369518865"/>
    <trip id="veh248" type="veh_passenger" depart="168.79" departLane="best" from="369835645#2" to="191953031#5"/>
    <trip id="veh249" type="veh_passenger" depart="169.47" departLane="best" from="369835646#1" to="191953150#19"/>
    <trip id="veh250" type="veh_passenger" depart="170.15" departLane="best" from="-370134726#2" to="-369999900#0"/>
    <trip id="veh251" type="veh_passenger" depart="170.83" departLane="best" from="-369665623#9" to="-191953120"/>
    <trip id="veh252" type="veh_passenger" depart="171.51" departLane="best" from="369999788" to="-704625221"/>
    <trip id="veh253" type="veh_passenger" depart="172.19" departLane="best" from="369835620" to="-369855689"/>
    <trip id="veh254" type="veh_passenger" depart="172.87" departLane="best" from="191953150#11" to="-369835613#0"/>
    <trip id="veh255" type="veh_passenger" depart="173.55" departLane="best" from="370135671" to="-362206705"/>