<?xml version="1.0" encoding="UTF-8"?>

<!-- generated on Mon Nov 23 19:22:45 2020 by Eclipse SUMO duarouter Version 1.7.0
<configuration xmlns:xsi="http://www.w3.org/2001/XMLSchema-instance" xsi:noNamespaceSchemaLocation="http://sumo.dlr.de/xsd/duarouterConfiguration.xsd">

    <input>
        <net-file value="/home/manas/Sumo/2020-11-23-19-22-40/osm.net.xml"/>
        <route-files value="/home/manas/Sumo/2020-11-23-19-22-40/osm.passenger.trips.xml"/>
    </input>

    <output>
        <output-file value="/home/manas/Sumo/2020-11-23-19-22-40/osm.passenger.trips.xml.tmp"/>
        <write-trips value="true"/>
    </output>

    <time>
        <begin value="0"/>
        <end value="3600"/>
    </time>

    <report>
        <no-warnings value="true"/>
        <ignore-errors value="true"/>
        <no-step-log value="true"/>
    </report>

</configuration>
-->

<routes xmlns:xsi="http://www.w3.org/2001/XMLSchema-instance" xsi:noNamespaceSchemaLocation="http://sumo.dlr.de/xsd/routes_file.xsd">
    <vType id="veh_passenger" vClass="passenger"/>
    <trip id="veh0" type="veh_passenger" depart="0.00" departLane="best" from="224632091" to="-224623085#1"/>
    <trip id="veh1" type="veh_passenger" depart="3.90" departLane="best" from="-36913442#1" to="-30810603#6"/>
    <trip id="veh2" type="veh_passenger" depart="7.81" departLane="best" from="30810823#1" to="26807590#10"/>
    <trip id="veh3" type="veh_passenger" depart="11.71" departLane="best" from="36982659#3" to="-224623107#1"/>
    <trip id="veh4" type="veh_passenger" depart="15.61" departLane="best" from="133488796#1" to="-224623089"/>
    <trip id="veh5" type="veh_passenger" depart="19.51" departLane="best" from="-30810603#3" to="224623084"/>
    <trip id="veh6" type="veh_passenger" depart="23.42" departLane="best" from="224632846" to="224623099#4"/>
    <trip id="veh7" type="veh_passenger" depart="27.32" departLane="best" from="-30810603#3" to="224623110#3"/>
    <trip id="veh8" type="veh_passenger" depart="31.22" departLane="best" from="36913445#2" to="-224623078#0"/>
    <trip id="veh9" type="veh_passenger" depart="35.13" departLane="best" from="-36982655#0" to="-224632852"/>
    <trip id="veh10" type="veh_passenger" depart="39.03" departLane="best" from="760886640#2" to="-36926703#3"/>
    <trip id="veh11" type="veh_passenger" depart="42.93" departLane="best" from="36926700#2" to="224623114#1"/>
    <trip id="veh12" type="veh_passenger" depart="46.83" departLane="best" from="36913445#1" to="30810603#8"/>
    <trip id="veh14" type="veh_passenger" depart="54.64" departLane="best" from="-54241770" to="224623102#1"/>
    <trip id="veh15" type="veh_passenger" depart="58.54" departLane="best" from="-30810603#8" to="-36913445#3"/>
    <trip id="veh16" type="veh_passenger" depart="62.45" departLane="best" from="-224623104#3" to="-30810823#1"/>
    <trip id="veh17" type="veh_passenger" depart="66.35" departLane="best" from="-224623110#1" to="-36913442#2"/>
    <trip id="veh18" type="veh_passenger" depart="70.25" departLane="best" from="-363460053#1" to="760886639#0"/>
    <trip id="veh20" type="veh_passenger" depart="78.06" departLane="best" from="-224639758#2" to="-54241770"/>
    <trip id="veh21" type="veh_passenger" depart="81.96" departLane="best" from="794927427" to="224632852"/>
    <trip id="veh22" type="veh_passenger" depart="85.86" departLane="best" from="224623101#0" to="26807590#14"/>
    <trip id="veh23" type="veh_passenger" depart="89.77" departLane="best" from="36926700#0" to="324405060#0"/>
    <trip id="veh24" type="veh_passenger" depart="93.67" departLane="best" from="-30810603#8" to="-224623090"/>
    <trip id="veh25" type="veh_passenger" depart="97.57" departLane="best" from="-36926699#2" to="-363460053#1"/>
    <trip id="veh26" type="veh_passenger" depart="101.47" departLane="best" from="-26807590#9" to="760886640#1"/>
    <trip id="veh27" type="veh_passenger" depart="105.38" departLane="best" from="36982655#0" to="-36926699#1"/>
    <trip id="veh28" type="veh_passenger" depart="109.28" departLane="best" from="224639758#2" to="-688693176"/>
    <trip id="veh29" type="veh_passenger" depart="113.18" departLane="best" from="46703709#0" to="172924459#3"/>
    <trip id="veh30" type="veh_passenger" depart="117.09" departLane="best" from="-363460053#0" to="-30842825#6"/>
    <trip id="veh31" type="veh_passenger" depart="120.99" departLane="best" from="224623108#1" to="408519782"/>
    <trip id="veh32" type="veh_passenger" depart="124.89" departLane="best" from="-760886639#1" to="-30810603#3"/>
    <trip id="veh33" type="veh_passenger" depart="128.80" departLane="best" from="794927429" to="224623085#1"/>
    <trip id="veh34" type="veh_passenger" depart="132.70" departLane="best" from="-224623109#0" to="-224623097#0"/>
    <trip id="veh35" type="veh_passenger" depart="136.60" departLane="best" from="-224623112#1" to="224632091"/>
    <trip id="veh36" type="veh_passenger" depart="140.50" departLane="best" from="36913442#1" to="133488796#1"/>
    <trip id="veh37" type="veh_passenger" depart="144.41" departLane="best" from="-224623101#1" to="-54241772"/>
    <trip id="veh38" type="veh_passenger" depart="148.31" departLane="best" from="794927429" to="224623095"/>
    <trip id="veh39" type="veh_passenger" depart="152.21" departLane="best" from="760889229#1" to="36926703#4"/>
    <trip id="veh40" type="veh_passenger" depart="156.12" departLane="best" from="-224623078#3" to="30810603#3"/>
    <trip id="veh41" type="veh_passenger" depart="160.02" departLane="best" from="26807590#13" to="224623099#1"/>
    <trip id="veh42" type="veh_passenger" depart="163.92" departLane="best" from="-363460053#1" to="224632852"/>
    <trip id="veh43" type="veh_passenger" depart="167.82" departLane="best" from="-224623112#2" to="157572494#2"/>
    <trip id="veh44" type="veh_passenger" depart="171.73" departLane="best" from="172924459#1" to="760886640#3"/>
    <trip id="veh45" type="veh_passenger" depart="175.63" departLane="best" from="36970818#1" to="-324405060#1"/>
    <trip id="veh46" type="veh_passenger" depart="179.53" departLane="best" from="408521141" to="36982656#1"/>
    <trip id="veh47" type="veh_passenger" depart="183.44" departLane="best" from="-36926667#0" to="224632846"/>
    <trip id="veh48" type="veh_passenger" depart="187.34" departLane="best" from="224623113#0" to="-224632845"/>
    <trip id="veh49" type="veh_passenger" depart="191.24" departLane="best" from="324405059#0" to="224623099#2"/>
    <trip id="veh50" type="veh_passenger" depart="195.14" departLane="best" from="324405060#1" to="224623097#0"/>
    <trip id="veh51" type="veh_passenger" depart="199.05" departLane="best" from="-133495462" to="-36926700#1"/>
    <trip id="veh52" type="veh_passenger" depart="202.95" departLane="best" from="-224623078#6" to="688538807"/>
    <trip id="veh53" type="veh_passenger" depart="206.85" departLane="best" from="36982655#1" to="36926672#0"/>
    <trip id="veh54" type="veh_passenger" depart="210.76" departLane="best" from="-36926667#4" to="-224623099#3"/>
    <trip id="veh55" type="veh_passenger" depart="214.66" departLane="best" from="36982655#0" to="760886640#2"/>
    <trip id="veh56" type="veh_passenger" depart="218.56" departLane="best" from="-224623107#1" to="172952769#4"/>
    <trip id="veh57" type="veh_passenger" depart="222.46" departLane="best" from="324405059#1" to="-224623116#0"/>
    <trip id="veh58" type="veh_passenger" depart="226.37" departLane="best" departSpeed="max" from="172952769#0" to="224623102#0"/>
    <trip id="veh59" type="veh_passenger" depart="230.27" departLane="best" from="-363460053#0" to="36982658"/>
    <trip id="veh60" type="veh_passenger" depart="234.17" departLane="best" from="133488796#1" to="-30810603#0"/>
    <trip id="veh61" type="veh_passenger" depart="238.08" departLane="best" from="224623095" to="30810603#8"/>
    <trip id="veh62" type="veh_passenger" depart="241.98" departLane="best" from="794927428#1" to="224639758#4"/>
    <trip id="veh63" type="veh_passenger" depart="245.88" departLane="best" from="157572494#3" to="224623090"/>
    <trip id="veh64" type="veh_passenger" depart="249.78" departLane="best" from="-224623114#1" to="-30810603#6"/>
    <trip id="veh65" type="veh_passenger" depart="253.69" departLane="best" from="-30810603#8" to="46703709#1"/>
    <trip id="veh66" type="veh_passenger" depart="257.59" departLane="best" from="-30842825#1" to="238460348"/>
    <trip id="veh67" type="veh_passenger" depart="261.49" departLane="best" from="-30810603#1" to="-224623116#1"/>
    <trip id="veh68" type="veh_passenger" depart="265.40" departLane="best" from="688538805#0" to="224623107#1"/>
    <trip id="veh69" type="veh_passenger" depart="269.30" departLane="best" departSpeed="max" from="172952769#0" to="363460053#2"/>
    <trip id="veh70" type="veh_passenger" depart="273.20" departLane="best" from="36913445#1" to="-26807590#18"/>
    <trip id="veh71" type="veh_passenger" depart="277.10" departLane="best" from="-224623110#0" to="133495462"/>
    <trip id="veh72" type="veh_passenger" depart="281.01" departLane="best" from="133488796#2" to="172924459#7"/>
    <trip id="veh74" type="veh_passenger" depart="288.81" departLane="best" from="36926703#4" to="-30842825#7"/>
    <trip id="veh76" type="veh_passenger" depart="296.62" departLane="best" from="133488796#1" to="-36913442#2"/>
    <trip id="veh77" type="veh_passenger" depart="300.52" departLane="best" from="-30842825#7" to="661904601"/>
    <trip id="veh78" type="veh_passenger" depart="304.42" departLane="best" from="157572494#5" to="36926703#4"/>
    <trip id="veh80" type="veh_passenger" depart="312.23" departLane="best" departSpeed="max" from="760889229#0" to="688538805#1"/>
    <trip id="veh81" type="veh_passenger" depart="316.13" departLane="best" from="36926700#2" to="-224639758#3"/>
    <trip id="veh82" type="veh_passenger" depart="320.04" departLane="best" departSpeed="max" from="172952769#0" to="-30810603#0"/>
    <trip id="veh83" type="veh_passenger" depart="323.94" departLane="best" from="-764500259" to="-224623099#4"/>
    <trip id="veh84" type="veh_passenger" depart="327.84" departLane="best" from="-54241770" to="764502951#1-AddedOnRampEdge"/>
    <trip id="veh85" type="veh_passenger" depart="331.75" departLane="best" from="172924459#2" to="133488796#1"/>
    <trip id="veh86" type="veh_passenger" depart="335.65" departLane="best" from="760886640#2" to="794927428#1"/>
    <trip id="veh87" type="veh_passenger" depart="339.55" departLane="best" from="224623099#4" to="30810603#1"/>
    <trip id="veh88" type="veh_passenger" depart="343.45" departLane="best" from="-224632846" to="-36913445#6"/>
    <trip id="veh89" type="veh_passenger" depart="347.36" departLane="best" departSpeed="max" from="760889229#0" to="224623109#2"/>
    <trip id="veh90" type="veh_passenger" depart="351.26" departLane="best" from="224623097#0" to="30842825#6"/>
    <trip id="veh91" type="veh_passenger" depart="355.16" departLane="best" from="-224623099#3" to="224623110#1"/>
    <trip id="veh92" type="veh_passenger" depart="359.07" departLane="best" from="-224632852" to="760886640#3"/>
    <trip id="veh93" type="veh_passenger" depart="362.97" departLane="best" from="-224623104#3" to="-26807590#16"/>
    <trip id="veh94" type="veh_passenger" depart="366.87" departLane="best" from="224623110#1" to="26807590#0"/>
    <trip id="veh95" type="veh_passenger" depart="370.77" departLane="best" from="-30810823#3" to="-224623114#1"/>
    <trip id="veh96" type="veh_passenger" depart="374.68" departLane="best" from="36982659#2" to="-30842825#6"/>
    <trip id="veh97" type="veh_passenger" depart="378.58" departLane="best" from="133488796#0" to="224623110#1"/>
    <trip id="veh98" type="veh_passenger" depart="382.48" departLane="best" from="224623087" to="760886639#0"/>
    <trip id="veh99" type="veh_passenger" depart="386.39" departLane="best" from="-26807590#5" to="30810603#0"/>
    <trip id="veh100" type="veh_passenger" depart="390.29" departLane="best" from="-30842825#1" to="-688693176"/>
    <trip id="veh102" type="veh_passenger" depart="398.09" departLane="best" from="-36926699#2" to="30842825#7"/>
    <trip id="veh104" type="veh_passenger" depart="405.90" departLane="best" from="-224623104#0" to="-30810603#0"/>
    <trip id="veh105" type="veh_passenger" depart="409.80" departLane="best" from="-363460053#0" to="688693176"/>
    <trip id="veh106" type="veh_passenger" depart="413.71" departLane="best" from="36982656#1" to="36982659#2"/>
    <trip id="veh107" type="veh_passenger" depart="417.61" departLane="best" from="224623113#1" to="776784266"/>
    <trip id="veh108" type="veh_passenger" depart="421.51" departLane="best" from="224639758#1" to="-224623078#1"/>
    <trip id="veh109" type="veh_passenger" depart="425.41" departLane="best" from="23076405#0" to="760886639#1"/>
    <trip id="veh110" type="veh_passenger" depart="429.32" departLane="best" from="-224623116#2" to="-224623113#1"/>
    <trip id="veh111" type="veh_passenger" depart="433.22" departLane="best" from="-363460053#3" to="224623114#1"/>
    <trip id="veh112" type="veh_passenger" depart="437.12" departLane="best" from="30810603#1" to="-26807590#5"/>
    <trip id="veh113" type="veh_passenger" depart="441.03" departLane="best" from="224623116#4" to="-363460053#0"/>
    <trip id="veh114" type="veh_passenger" depart="444.93" departLane="best" from="172952769#2" to="46703709#0"/>
    <trip id="veh115" type="veh_passenger" depart="448.83" departLane="best" from="36926700#1" to="-224623109#0"/>
    <trip id="veh116" type="veh_passenger" depart="452.73" departLane="best" from="133488796#2" to="-36913442#1"/>
    <trip id="veh118" type="veh_passenger" depart="460.54" departLane="best" from="30842825#2" to="224623102#0"/>
    <trip id="veh119" type="veh_passenger" depart="464.44" departLane="best" from="-224623104#1" to="400478704"/>
    <trip id="veh120" type="veh_passenger" depart="468.35" departLane="best" departSpeed="max" from="408519783" to="224623101#0"/>
    <trip id="veh121" type="veh_passenger" depart="472.25" departLane="best" from="36926672#1" to="224623110#0"/>
    <trip id="veh122" type="veh_passenger" depart="476.15" departLane="best" from="-36926667#4" to="408521141"/>
    <trip id="veh123" type="veh_passenger" depart="480.05" departLane="best" departSpeed="max" from="408519783" to="-26807590#9"/>
    <trip id="veh124" type="veh_passenger" depart="483.96" departLane="best" from="-30842825#7" to="-224623110#2"/>
    <trip id="veh125" type="veh_passenger" depart="487.86" departLane="best" from="-776784266" to="224623116#3"/>
    <trip id="veh126" type="veh_passenger" depart="491.76" departLane="best" from="-224632846" to="688538807"/>
    <trip id="veh127" type="veh_passenger" depart="495.67" departLane="best" departSpeed="max" from="36970818#0" to="764500259"/>
    <trip id="veh128" type="veh_passenger" depart="499.57" departLane="best" from="36913445#2" to="36982659#3"/>
    <trip id="veh129" type="veh_passenger" depart="503.47" departLane="best" from="-224623085#1" to="30810823#3"/>
    <trip id="veh130" type="veh_passenger" depart="507.37" departLane="best" from="-36926703#1" to="688595931"/>
    <trip id="veh131" type="veh_passenger" depart="511.28" departLane="best" from="36913444#1" to="36970818#1"/>
    <trip id="veh132" type="veh_passenger" depart="515.18" departLane="best" from="36913445#2" to="-363460053#1"/>
    <trip id="veh133" type="veh_passenger" depart="519.08" departLane="best" from="363460053#3" to="-224623112#0"/>
    <trip id="veh134" type="veh_passenger" depart="522.99" departLane="best" departSpeed="max" from="36970818#0" to="36926703#3"/>
    <trip id="veh135" type="veh_passenger" depart="526.89" departLane="best" from="-30810603#4" to="36913445#5"/>
    <trip id="veh136" type="veh_passenger" depart="530.79" departLane="best" from="36913442#3" to="-30810603#8"/>
    <trip id="veh137" type="veh_passenger" depart="534.69" departLane="best" from="-36926700#3" to="36970818#1"/>
    <trip id="veh138" type="veh_passenger" depart="538.60" departLane="best" departSpeed="max" from="760889229#0" to="-36913442#2"/>
    <trip id="veh139" type="veh_passenger" depart="542.50" departLane="best" from="224632092" to="-760886639#1"/>
    <trip id="veh140" type="veh_passenger" depart="546.40" departLane="best" from="764502951#1" to="224623099#1"/>
    <trip id="veh141" type="veh_passenger" depart="550.31" departLane="best" from="688538807" to="-224623113#1"/>
    <trip id="veh142" type="veh_passenger" depart="554.21" departLane="best" departSpeed="max" from="760889229#0" to="-26807590#13"/>
    <trip id="veh143" type="veh_passenger" depart="558.11" departLane="best" departSpeed="max" from="760889229#0" to="-363460053#0"/>
    <trip id="veh144" type="veh_passenger" depart="562.02" departLane="best" from="-224623112#1" to="157572494#0"/>
    <trip id="veh145" type="veh_passenger" depart="565.92" departLane="best" from="-688538805#0" to="224623109#1"/>
    <trip id="veh146" type="veh_passenger" depart="569.82" departLane="best" from="-133495462" to="688538805#0"/>
    <trip id="veh147" type="veh_passenger" depart="573.72" departLane="best" from="224623095" to="30810603#2"/>
    <trip id="veh148" type="veh_passenger" depart="577.63" departLane="best" from="30842825#2" to="238460348"/>
    <trip id="veh149" type="veh_passenger" depart="581.53" departLane="best" from="30810603#2" to="-36926667#1"/>
    <trip id="veh150" type="veh_passenger" depart="585.43" departLane="best" from="-36926672#0" to="-794927427"/>
    <trip id="veh151" type="veh_passenger" depart="589.34" departLane="best" from="-764500259" to="-36913445#6"/>
    <trip id="veh152" type="veh_passenger" depart="593.24" departLane="best" from="-224623115#1" to="133488796#0"/>
    <trip id="veh153" type="veh_passenger" depart="597.14" departLane="best" from="688538807" to="26807590#10"/>
    <trip id="veh154" type="veh_passenger" depart="601.04" departLane="best" departSpeed="max" from="408519783" to="224623116#1"/>
    <trip id="veh155" type="veh_passenger" depart="604.95" departLane="best" from="-36926667#1" to="224623101#1"/>
    <trip id="veh156" type="veh_passenger" depart="608.85" departLane="best" from="-133495462" to="-36913445#2"/>
    <trip id="veh157" type="veh_passenger" depart="612.75" departLane="best" from="133489253#1" to="224623109#2"/>
    <trip id="veh158" type="veh_passenger" depart="616.66" departLane="best" from="224639758#1" to="172924459#7"/>
    <trip id="veh159" type="veh_passenger" depart="620.56" departLane="best" from="157572494#5" to="-30810603#0"/>
    <trip id="veh160" type="veh_passenger" depart="624.46" departLane="best" departSpeed="max" from="172952769#0" to="408521141"/>
    <trip id="veh162" type="veh_passenger" depart="632.27" departLane="best" from="36913445#6" to="30842825#7"/>
    <trip id="veh164" type="veh_passenger" depart="640.07" departLane="best" from="-30842825#5" to="172924459#7"/>
    <trip id="veh165" type="veh_passenger" depart="643.98" departLane="best" from="-794927429" to="224632092"/>
    <trip id="veh166" type="veh_passenger" depart="647.88" departLane="best" from="172952769#3" to="-30842825#5"/>
    <trip id="veh167" type="veh_passenger" depart="651.78" departLane="best" from="224639758#2" to="-224623078#0"/>
    <trip id="veh168" type="veh_passenger" depart="655.68" departLane="best" from="30842825#7" to="324405059#1"/>
    <trip id="veh169" type="veh_passenger" depart="659.59" departLane="best" from="-224623112#0" to="133488796#2"/>
    <trip id="veh170" type="veh_passenger" depart="663.49" departLane="best" from="-26807590#11" to="760886640#3"/>
    <trip id="veh171" type="veh_passenger" depart="667.39" departLane="best" from="-30842825#7" to="36926700#2"/>
    <trip id="veh172" type="veh_passenger" depart="671.30" departLane="best" from="172924459#2" to="36913444#0"/>
    <trip id="veh173" type="veh_passenger" depart="675.20" departLane="best" from="238460348" to="776784266"/>
    <trip id="veh174" type="veh_passenger" depart="679.10" departLane="best" from="224623110#1" to="760886640#3"/>
    <trip id="veh175" type="veh_passenger" depart="683.00" departLane="best" from="36982659#2" to="224623116#0"/>
    <trip id="veh176" type="veh_passenger" depart="686.91" departLane="best" from="30810603#2" to="224623084"/>
    <trip id="veh177" type="veh_passenger" depart="690.81" departLane="best" from="36926667#4" to="224623101#1"/>
    <trip id="veh178" type="veh_passenger" depart="694.71" departLane="best" from="400478704" to="30842825#3"/>
    <trip id="veh179" type="veh_passenger" depart="698.62" departLane="best" departSpeed="max" from="172952769#0" to="-324405060#0"/>
    <trip id="veh180" type="veh_passenger" depart="702.52" departLane="best" from="-30842825#6" to="224632846"/>
    <trip id="veh181" type="veh_passenger" depart="706.42" departLane="best" from="324405059#1" to="224623092#1"/>
    <trip id="veh182" type="veh_passenger" depart="710.32" departLane="best" from="224623116#1" to="-36913442#0"/>
    <trip id="veh183" type="veh_passenger" depart="714.23" departLane="best" from="-363460053#3" to="-36926699#3"/>
    <trip id="veh184" type="veh_passenger" depart="718.13" departLane="best" from="-30810823#0" to="26807590#2"/>
    <trip id="veh185" type="veh_passenger" depart="722.03" departLane="best" from="26807590#5" to="-224623101#1"/>
    <trip id="veh186" type="veh_passenger" depart="725.94" departLane="best" from="-776784266" to="224623099#3"/>
    <trip id="veh187" type="veh_passenger" depart="729.84" departLane="best" from="-794927429" to="-26807590#7"/>
    <trip id="veh188" type="veh_passenger" depart="733.74" departLane="best" from="133488796#0" to="46703709#0"/>
    <trip id="veh189" type="veh_passenger" depart="737.64" departLane="best" from="224623108#1" to="26807590#2"/>
    <trip id="veh190" type="veh_passenger" depart="741.55" departLane="best" from="36926703#2" to="324405059#0"/>
    <trip id="veh191" type="veh_passenger" depart="745.45" departLane="best" from="-54241770" to="-224623078#0"/>
    <trip id="veh192" type="veh_passenger" depart="749.35" departLane="best" from="-36982659#2" to="31565098"/>
    <trip id="veh193" type="veh_passenger" depart="753.26" departLane="best" from="36926700#4" to="760886640#3"/>
    <trip id="veh194" type="veh_passenger" depart="757.16" departLane="best" from="133488796#0" to="30842825#5"/>
    <trip id="veh195" type="veh_passenger" depart="761.06" departLane="best" from="224623099#0" to="224623114#0"/>
    <trip id="veh196" type="veh_passenger" depart="764.96" departLane="best" from="-764500259" to="-224639758#3"/>
    <trip id="veh197" type="veh_passenger" depart="768.87" departLane="best" departSpeed="max" from="172952769#0" to="-224623115#1"/>
    <trip id="veh198" type="veh_passenger" depart="772.77" departLane="best" from="224623115#1" to="-224623085#1"/>
    <trip id="veh199" type="veh_passenger" depart="776.67" departLane="best" from="-688595931" to="224623104#3"/>
    <trip id="veh200" type="veh_passenger" depart="780.58" departLane="best" from="-224623116#3" to="172924459#4"/>
    <trip id="veh201" type="veh_passenger" depart="784.48" departLane="best" from="-224623099#0" to="-54241770"/>
    <trip id="veh202" type="veh_passenger" depart="788.38" departLane="best" from="324405058" to="-54241770"/>
    <trip id="veh203" type="veh_passenger" depart="792.29" departLane="best" from="30842825#7" to="36926672#0"/>
    <trip id="veh204" type="veh_passenger" depart="796.19" departLane="best" from="-31565098" to="-224623105"/>
    <trip id="veh205" type="veh_passenger" depart="800.09" departLane="best" from="-224623078#6" to="224623099#2"/>
    <trip id="veh207" type="veh_passenger" depart="807.90" departLane="best" from="224632852" to="31565098"/>
    <trip id="veh208" type="veh_passenger" depart="811.80" departLane="best" from="760886639#1" to="-26807590#3"/>
    <trip id="veh209" type="veh_passenger" depart="815.70" departLane="best" from="-224623115#1" to="238460348"/>
    <trip id="veh210" type="veh_passenger" depart="819.61" departLane="best" from="224623102#1" to="-30810603#2"/>
    <trip id="veh211" type="veh_passenger" depart="823.51" departLane="best" from="26807590#21" to="324405059#1"/>
    <trip id="veh212" type="veh_passenger" depart="827.41" departLane="best" from="30842825#6" to="-224623113#0"/>
    <trip id="veh213" type="veh_passenger" depart="831.31" departLane="best" from="36913445#6" to="760886640#3"/>
    <trip id="veh214" type="veh_passenger" depart="835.22" departLane="best" from="-224623112#0" to="-224623085#1"/>
    <trip id="veh215" type="veh_passenger" depart="839.12" departLane="best" from="-36926672#1" to="26807590#10"/>
    <trip id="veh216" type="veh_passenger" depart="843.02" departLane="best" from="760886640#2" to="-760886639#0"/>
    <trip id="veh217" type="veh_passenger" depart="846.93" departLane="best" from="30810603#0" to="-224623104#1"/>
    <trip id="veh218" type="veh_passenger" depart="850.83" departLane="best" from="36926700#3" to="224623113#1"/>
    <trip id="veh219" type="veh_passenger" depart="854.73" departLane="best" from="363460053#1" to="-36982659#0"/>
    <trip id="veh220" type="veh_passenger" depart="858.63" departLane="best" from="133489253#1" to="-46703709#2"/>
    <trip id="veh221" type="veh_passenger" depart="862.54" departLane="best" from="224623078#2" to="-36982655#0"/>
    <trip id="veh222" type="veh_passenger" depart="866.44" departLane="best" from="-224623110#3" to="760886640#3"/>
    <trip id="veh223" type="veh_passenger" depart="870.34" departLane="best" from="224632090" to="36926667#3"/>
    <trip id="veh224" type="veh_passenger" depart="874.25" departLane="best" from="30810823#0" to="760886640#3"/>
    <trip id="veh225" type="veh_passenger" depart="878.15" departLane="best" from="-363460053#2" to="36913445#1"/>
    <trip id="veh227" type="veh_passenger" depart="885.95" departLane="best" from="157572494#2" to="30810603#8"/>
    <trip id="veh228" type="veh_passenger" depart="889.86" departLane="best" from="-363460053#2" to="36926700#4"/>
    <trip id="veh229" type="veh_passenger" depart="893.76" departLane="best" from="36926667#4" to="-224623107#1"/>
    <trip id="veh230" type="veh_passenger" depart="897.66" departLane="best" from="36982656#1" to="-30842825#5"/>
    <trip id="veh231" type="veh_passenger" depart="901.57" departLane="best" departSpeed="max" from="172952769#0" to="224623115#0"/>
    <trip id="veh232" type="veh_passenger" depart="905.47" departLane="best" from="-54241770" to="-224623087"/>
    <trip id="veh233" type="veh_passenger" depart="909.37" departLane="best" from="36926700#3" to="-26807590#14"/>
    <trip id="veh234" type="veh_passenger" depart="913.27" departLane="best" from="-30810603#0" to="36913444#0"/>
    <trip id="veh235" type="veh_passenger" depart="917.18" departLane="best" from="-36982655#0" to="36982659#2"/>
    <trip id="veh236" type="veh_passenger" depart="921.08" departLane="best" from="26807590#3" to="-36913442#1"/>
    <trip id="veh237" type="veh_passenger" depart="924.98" departLane="best" from="-224623078#2" to="760886640#2"/>
    <trip id="veh238" type="veh_passenger" depart="928.89" departLane="best" from="-224623107#1" to="30810603#2"/>
    <trip id="veh239" type="veh_passenger" depart="932.79" departLane="best" from="172952769#2" to="324405057#0"/>
    <trip id="veh240" type="veh_passenger" depart="936.69" departLane="best" from="172952769#2" to="36913442#2"/>
    <trip id="veh241" type="veh_passenger" depart="940.59" departLane="best" from="-224623109#1" to="-30810603#4"/>
    <trip id="veh242" type="veh_passenger" depart="944.50" departLane="best" from="26807590#18" to="-36926667#3"/>
    <trip id="veh243" type="veh_passenger" depart="948.40" departLane="best" from="224623107#1" to="172924459#7"/>
    <trip id="veh244" type="veh_passenger" depart="952.30" departLane="best" from="224623092#0" to="133488796#2"/>
    <trip id="veh245" type="veh_passenger" depart="956.21" departLane="best" from="30842825#5" to="-36926700#4"/>
    <trip id="veh246" type="veh_passenger" depart="960.11" departLane="best" from="26807590#4" to="-363460053#3"/>
    <trip id="veh247" type="veh_passenger" depart="964.01" departLane="best" from="-31565098" to="-224623114#1"/>
    <trip id="veh248" type="veh_passenger" depart="967.91" departLane="best" from="-26807590#2" to="-224623114#1"/>
    <trip id="veh249" type="veh_passenger" depart="971.82" departLane="best" from="224623092#2" to="324405059#0"/>
    <trip id="veh250" type="veh_passenger" depart="975.72" departLane="best" from="-26807590#16" to="-30810603#2"/>
    <trip id="veh251" type="veh_passenger" depart="979.62" departLane="best" departSpeed="max" from="172952769#0" to="30810603#4"/>
    <trip id="veh252" type="veh_passenger" depart="983.53" departLane="best" from="764500259" to="224623092#2"/>
    <trip id="veh253" type="veh_passenger" depart="987.43" departLane="best" from="-36913445#0" to="-224623110#1"/>
    <trip id="veh254" type="veh_passenger" depart="991.33" departLane="best" from="-26807590#20" to="-30810603#8"/>
    <trip id="veh255" type="veh_passenger" depart="995.24" departLane="best" from="224623092#2" to="-36913442#0"/>
    <trip id="veh256" type="veh_passenger" depart="999.14" departLane="best" from="764500259" to="224623102#1"/>
    <trip id="veh257" type="veh_passenger" depart="1003.04" departLane="best" from="26807590#20" to="-224623115#1"/>
    <trip id="veh258" type="veh_passenger" depart="1006.94" departLane="best" departSpeed="max" from="36970818#0" to="224623078#0"/>
    <trip id="veh259" type="veh_passenger" depart="1010.85" departLane="best" departSpeed="max" from="36970818#0" to="224623108#1"/>
    <trip id="veh260" type="veh_passenger" depart="1014.75" departLane="best" departSpeed="max" from="172952769#0" to="157572494#4"/>
    <trip id="veh261" type="veh_passenger" depart="1018.65" departLane="best" from="-26807590#15" to="-224623099#0"/>