<?xml version="1.0" encoding="UTF-8"?>

<!-- generated on Mon Nov 23 19:22:44 2020 by Eclipse SUMO netconvert Version 1.7.0
<configuration xmlns:xsi="http://www.w3.org/2001/XMLSchema-instance" xsi:noNamespaceSchemaLocation="http://sumo.dlr.de/xsd/netconvertConfiguration.xsd">

    <input>
        <type-files value="/usr/share/sumo/data/typemap/osmNetconvert.typ.xml"/>
        <osm-files value="osm_bbox.osm.xml"/>
    </input>

    <output>
        <output-file value="osm.net.xml"/>
        <output.street-names value="true"/>
        <output.original-names value="true"/>
    </output>

    <projection>
        <proj.utm value="true"/>
    </projection>

    <processing>
        <geometry.remove value="true"/>
        <roundabouts.guess value="true"/>
        <lefthand value="true"/>
    </processing>

    <tls_building>
        <tls.discard-simple value="true"/>
        <tls.join value="true"/>
        <tls.guess-signals value="true"/>
        <tls.default-type value="actuated"/>
    </tls_building>

    <ramp_guessing>
        <ramps.guess value="true"/>
    </ramp_guessing>

    <junctions>
        <junctions.join value="true"/>
        <junctions.corner-detail value="5"/>
    </junctions>

    <report>
        <verbose value="true"/>
        <aggregate-warnings value="5"/>
    </report>

</configuration>
-->

<net version="1.6" junctionCornerDetail="5" lefthand="true" limitTurnSpeed="5.50" xmlns:xsi="http://www.w3.org/2001/XMLSchema-instance" xsi:noNamespaceSchemaLocation="http://sumo.dlr.de/xsd/net_file.xsd">

    <location netOffset="-781669.42,-1436482.83" convBoundary="0.00,-0.00,35944.69,2354.35" origBoundary="77.592817,12.980989,77.927674,13.198447" projParameter="+proj=utm +zone=43 +ellps=WGS84 +datum=WGS84 +units=m +no_defs"/>

    <type id="highway.bridleway" priority="1" numLanes="1" speed="2.78" allow="pedestrian" oneway="1" width="2.00"/>
    <type id="highway.bus_guideway" priority="1" numLanes="1" speed="27.78" allow="bus" oneway="1"/>
    <type id="highway.cycleway" priority="1" numLanes="1" speed="8.33" allow="bicycle" oneway="0" width="1.00"/>
    <type id="highway.footway" priority="1" numLanes="1" speed="2.78" allow="pedestrian" oneway="1" width="2.00"/>
    <type id="highway.ford" priority="1" numLanes="1" speed="2.78" allow="army" oneway="0"/>
    <type id="highway.living_street" priority="2" numLanes="1" speed="2.78" disallow="tram rail_urban rail rail_electric rail_fast ship" oneway="0"/>
    <type id="highway.motorway" priority="14" numLanes="2" speed="39.44" allow="private emergency authority army vip passenger hov taxi bus coach delivery truck trailer motorcycle evehicle custom1 custom2" oneway="1"/>
    <type id="highway.motorway_link" priority="9" numLanes="1" speed="22.22" allow="private emergency authority army vip passenger hov taxi bus coach delivery truck trailer motorcycle evehicle custom1 custom2" oneway="1"/>
    <type id="highway.path" priority="1" numLanes="1" speed="2.78" allow="pedestrian bicycle" oneway="1" width="2.00"/>
    <type id="highway.pedestrian" priority="1" numLanes="1" speed="2.78" allow="pedestrian" oneway="1" width="2.00"/>
    <type id="highway.primary" priority="12" numLanes="2" speed="27.78" disallow="tram rail_urban rail rail_electric rail_fast ship" oneway="0"/>
    <type id="highway.primary_link" priority="7" numLanes="1" speed="22.22" disallow="tram rail_urban rail rail_electric rail_fast ship" oneway="0"/>
    <type id="highway.raceway" priority="15" numLanes="2" speed="83.33" allow="vip" oneway="0"/>
    <type id="highway.residential" priority="3" numLanes="1" speed="13.89" disallow="tram rail_urban rail rail_electric rail_fast ship" oneway="0"/>
    <type id="highway.secondary" priority="11" numLanes="1" speed="27.78" disallow="tram rail_urban rail rail_electric rail_fast ship" oneway="0"/>
    <type id="highway.secondary_link" priority="6" numLanes="1" speed="22.22" disallow="tram rail_urban rail rail_electric rail_fast ship" oneway="0"/>
    <type id="highway.service" priority="1" numLanes="1" speed="5.56" allow="pedestrian delivery bicycle" oneway="0"/>
    <type id="highway.stairs" priority="1" numLanes="1" speed="1.39" allow="pedestrian" oneway="1" width="2.00"/>
    <type id="highway.step" priority="1" numLanes="1" speed="1.39" allow="pedestrian" oneway="1" width="2.00"/>
    <type id="highway.steps" priority="1" numLanes="1" speed="1.39" allow="pedestrian" oneway="1" width="2.00"/>
    <type id="highway.tertiary" priority="10" numLanes="1" speed="22.22" disallow="tram rail_urban rail rail_electric rail_fast ship" oneway="0"/>
    <type id="highway.tertiary_link" priority="5" numLanes="1" speed="22.22" disallow="tram rail_urban rail rail_electric rail_fast ship" oneway="0"/>
    <type id="highway.track" priority="1" numLanes="1" speed="5.56" allow="pedestrian motorcycle moped bicycle" oneway="0"/>
    <type id="highway.trunk" priority="13" numLanes="2" speed="27.78" disallow="pedestrian bicycle tram rail_urban rail rail_electric rail_fast ship" oneway="0"/>
    <type id="highway.trunk_link" priority="8" numLanes="1" speed="22.22" disallow="pedestrian bicycle tram rail_urban rail rail_electric rail_fast ship" oneway="0"/>
    <type id="highway.unclassified" priority="4" numLanes="1" speed="13.89" disallow="tram rail_urban rail rail_electric rail_fast ship" oneway="0"/>
    <type id="highway.unsurfaced" priority="1" numLanes="1" speed="8.33" disallow="tram rail_urban rail rail_electric rail_fast ship" oneway="0"/>
    <type id="railway.highspeed" priority="21" numLanes="1" speed="69.44" allow="rail_fast" oneway="1"/>
    <type id="railway.light_rail" priority="19" numLanes="1" speed="27.78" allow="rail_urban" oneway="1"/>
    <type id="railway.preserved" priority="16" numLanes="1" speed="27.78" allow="rail" oneway="1"/>
    <type id="railway.rail" priority="20" numLanes="1" speed="44.44" allow="rail" oneway="1"/>
    <type id="railway.subway" priority="18" numLanes="1" speed="27.78" allow="rail_urban" oneway="1"/>
    <type id="railway.tram" priority="17" numLanes="1" speed="13.89" allow="tram" oneway="1"/>

    <edge id=":1175639615_0" function="internal">
        <lane id=":1175639615_0_0" index="0" allow="rail rail_electric rail_fast" speed="44.44" length="3.00" shape="993.98,1493.66 995.60,1496.19"/>
    </edge>
    <edge id=":1175639724_0" function="internal">
        <lane id=":1175639724_0_0" index="0" allow="rail rail_electric rail_fast" speed="44.44" length="2.36" shape="933.80,1391.62 933.41,1391.04 933.10,1390.67 932.75,1390.33 932.24,1389.85"/>
    </edge>
    <edge id=":1175639724_1" function="internal">
        <lane id=":1175639724_1_0" index="0" allow="rail" speed="2.86" length="1.64" shape="932.44,1389.70 932.79,1390.20 932.87,1390.38 932.69,1390.27 932.24,1389.85"/>
    </edge>
    <edge id=":1175640563_0" function="internal">
        <lane id=":1175640563_0_0" index="0" allow="rail rail_electric rail_fast" speed="44.44" length="2.98" shape="271.98,1352.99 269.23,1354.13"/>
    </edge>
    <edge id=":1290058692_0" function="internal">
        <lane id=":1290058692_0_0" index="0" allow="pedestrian delivery bicycle" speed="5.42" length="5.40" shape="2094.10,959.38 2093.59,957.88 2093.59,956.58 2094.08,955.49 2095.07,954.62"/>
    </edge>
    <edge id=":1290058692_1" function="internal">
        <lane id=":1290058692_1_0" index="0" allow="pedestrian delivery bicycle" speed="5.56" length="7.90" shape="2094.10,959.38 2093.07,957.29 2092.22,955.92 2091.17,954.70 2089.52,953.03"/>
    </edge>
    <edge id=":1290058692_2" function="internal">
        <lane id=":1290058692_2_0" index="0" allow="pedestrian delivery bicycle" speed="3.65" length="4.67" shape="2094.10,959.38 2092.86,958.64 2091.97,958.61 2091.42,959.31 2091.20,960.74"/>
    </edge>
    <edge id=":1290058692_3" function="internal">
        <lane id=":1290058692_3_0" index="0" allow="pedestrian delivery bicycle" speed="5.08" length="5.42" shape="2086.68,959.62 2088.14,959.01 2089.38,958.99 2090.40,959.57 2091.20,960.74"/>
    </edge>
    <edge id=":1290058692_4" function="internal">
        <lane id=":1290058692_4_0" index="0" disallow="tram rail_urban rail rail_electric rail_fast ship" speed="27.78" length="9.77" shape="2086.68,959.62 2095.07,954.62"/>
    </edge>
    <edge id=":1290058692_5" function="internal">
        <lane id=":1290058692_5_0" index="0" allow="pedestrian delivery bicycle" speed="5.87" length="8.57" shape="2086.68,959.62 2089.10,957.92 2090.38,956.25 2090.52,954.63 2089.52,953.03"/>
    </edge>
    <edge id=":1290058692_6" function="internal">
        <lane id=":1290058692_6_0" index="0" allow="pedestrian delivery bicycle" speed="5.56" length="6.79" shape="2087.26,955.29 2088.67,956.72 2089.58,957.77 2090.32,958.94 2091.20,960.74"/>
    </edge>
    <edge id=":1290058692_7" function="internal">
        <lane id=":1290058692_7_0" index="0" allow="pedestrian delivery bicycle" speed="6.89" length="8.47" shape="2087.26,955.29 2088.71,956.22 2090.49,956.41 2092.62,955.88 2095.07,954.62"/>
    </edge>
    <edge id=":1290058692_8" function="internal">
        <lane id=":1290058692_8_0" index="0" allow="pedestrian delivery bicycle" speed="3.65" length="4.67" shape="2087.26,955.29 2088.67,955.58 2089.52,955.30 2089.80,954.45 2089.52,953.03"/>
    </edge>
    <edge id=":1465590376_0" function="internal">
        <lane id=":1465590376_0_0" index="0" disallow="tram rail_urban rail rail_electric rail_fast ship" speed="9.11" length="3.81" shape="1338.24,1380.23 1338.73,1379.22 1339.17,1378.57 1339.74,1378.04 1340.65,1377.38"/>
    </edge>
    <edge id=":1465590376_1" function="internal">
        <lane id=":1465590376_1_0" index="0" disallow="tram rail_urban rail rail_electric rail_fast ship" speed="16.34" length="3.69" shape="1335.54,1376.30 1336.59,1376.00 1337.29,1375.73 1337.94,1375.36 1338.84,1374.75"/>
    </edge>
    <edge id=":1469231232_0" function="internal">
        <lane id=":1469231232_0_0" index="0" disallow="tram rail_urban rail rail_electric rail_fast ship" speed="11.11" length="13.62" shape="1056.90,1345.40 1060.05,1343.73 1062.88,1341.99 1065.78,1340.50 1069.14,1339.59"/>
    </edge>
    <edge id=":1469231232_1" function="internal">
        <lane id=":1469231232_1_0" index="0" disallow="tram rail_urban rail rail_electric rail_fast ship" speed="3.65" length="4.67" shape="1056.90,1345.40 1057.68,1344.18 1057.72,1343.29 1057.03,1342.72 1055.61,1342.47"/>
    </edge>
    <edge id=":1469231232_2" function="internal">
        <lane id=":1469231232_2_0" index="0" disallow="tram rail_urban rail rail_electric rail_fast ship" speed="5.48" length="9.67" shape="1055.54,1336.38 1058.23,1337.87 1059.14,1339.39 1058.27,1340.92 1055.61,1342.47"/>
    </edge>
    <edge id=":1469231232_3" function="internal">
        <lane id=":1469231232_3_0" index="0" disallow="tram rail_urban rail rail_electric rail_fast ship" speed="8.33" length="14.15" shape="1055.54,1336.38 1058.92,1337.79 1062.22,1338.96 1065.57,1339.64 1069.14,1339.59"/>
    </edge>
    <edge id=":1469231264_0" function="internal">
        <lane id=":1469231264_0_0" index="0" disallow="tram rail_urban rail rail_electric rail_fast ship" speed="27.78" length="8.71" shape="901.62,1139.24 900.45,1141.48 899.64,1143.01 898.74,1144.48 897.32,1146.57"/>
        <lane id=":1469231264_0_1" index="1" disallow="tram rail_urban rail rail_electric rail_fast ship" speed="27.78" length="8.71" shape="904.45,1140.74 903.22,1143.08 902.37,1144.68 901.43,1146.23 899.93,1148.41"/>
    </edge>
    <edge id=":1469231264_2" function="internal">
        <lane id=":1469231264_2_0" index="0" disallow="tram rail_urban rail rail_electric rail_fast ship" speed="7.28" length="3.82" shape="904.45,1140.74 903.84,1143.36 904.34,1144.37"/>
    </edge>
    <edge id=":1469231264_3" function="internal">
        <lane id=":1469231264_3_0" index="0" disallow="tram rail_urban rail rail_electric rail_fast ship" speed="3.65" length="2.34" shape="904.45,1140.74 904.59,1142.18 905.11,1142.91"/>
    </edge>
    <edge id=":1469231264_8" function="internal">
        <lane id=":1469231264_8_0" index="0" disallow="tram rail_urban rail rail_electric rail_fast ship" speed="7.28" length="9.80" shape="904.34,1144.37 904.97,1145.64 907.86,1147.59 912.48,1149.21"/>
    </edge>
    <edge id=":1469231264_9" function="internal">
        <lane id=":1469231264_9_0" index="0" disallow="tram rail_urban rail rail_electric rail_fast ship" speed="3.65" length="2.34" shape="905.11,1142.91 906.00,1142.93 907.27,1142.24"/>
    </edge>
    <edge id=":1469231264_4" function="internal">
        <lane id=":1469231264_4_0" index="0" disallow="tram rail_urban rail rail_electric rail_fast ship" speed="7.28" length="8.42" shape="905.17,1152.09 906.70,1150.39 908.42,1149.34 910.35,1148.95 912.48,1149.21"/>
    </edge>
    <edge id=":1469231264_5" function="internal">
        <lane id=":1469231264_5_0" index="0" disallow="tram rail_urban rail rail_electric rail_fast ship" speed="27.78" length="9.50" shape="905.17,1152.09 906.79,1149.72 907.82,1148.04 908.76,1146.30 910.10,1143.75"/>
        <lane id=":1469231264_5_1" index="1" disallow="tram rail_urban rail rail_electric rail_fast ship" speed="27.78" length="9.50" shape="902.55,1150.25 904.11,1147.97 905.10,1146.36 905.99,1144.69 907.27,1142.24"/>
    </edge>
    <edge id=":1469231264_7" function="internal">
        <lane id=":1469231264_7_0" index="0" disallow="tram rail_urban rail rail_electric rail_fast ship" speed="3.65" length="2.34" shape="902.55,1150.25 902.59,1148.81 902.16,1148.02"/>
    </edge>
    <edge id=":1469231264_10" function="internal">
        <lane id=":1469231264_10_0" index="0" disallow="tram rail_urban rail rail_electric rail_fast ship" speed="3.65" length="2.34" shape="902.16,1148.02 901.28,1147.89 899.93,1148.41"/>
    </edge>
    <edge id=":1469231275_0" function="internal">
        <lane id=":1469231275_0_0" index="0" disallow="tram rail_urban rail rail_electric rail_fast ship" speed="6.49" length="9.03" shape="1157.80,1113.01 1155.34,1112.69 1153.58,1111.66 1152.53,1109.92 1152.17,1107.47"/>
    </edge>
    <edge id=":1469231275_1" function="internal">
        <lane id=":1469231275_1_0" index="0" disallow="tram rail_urban rail rail_electric rail_fast ship" speed="2.78" length="14.41" shape="1157.80,1113.01 1143.38,1113.12"/>
    </edge>
    <edge id=":1469231275_2" function="internal">
        <lane id=":1469231275_2_0" index="0" disallow="tram rail_urban rail rail_electric rail_fast ship" speed="8.02" length="14.21" shape="1157.80,1113.01 1153.94,1113.61 1151.20,1115.29 1149.56,1118.05 1149.04,1121.90"/>
    </edge>
    <edge id=":1469231275_3" function="internal">
        <lane id=":1469231275_3_0" index="0" disallow="tram rail_urban rail rail_electric rail_fast ship" speed="2.78" length="4.67" shape="1157.80,1113.01 1156.61,1113.83 1156.22,1114.63 1156.63,1115.43 1157.84,1116.21"/>
    </edge>
    <edge id=":1469231275_4" function="internal">
        <lane id=":1469231275_4_0" index="0" disallow="tram rail_urban rail rail_electric rail_fast ship" speed="6.53" length="9.07" shape="1152.24,1121.87 1152.57,1119.42 1153.62,1117.66 1155.37,1116.59 1157.84,1116.21"/>
    </edge>
    <edge id=":1469231275_5" function="internal">
        <lane id=":1469231275_5_0" index="0" disallow="tram rail_urban rail rail_electric rail_fast ship" speed="13.89" length="14.41" shape="1152.24,1121.87 1152.17,1107.47"/>
    </edge>
    <edge id=":1469231275_6" function="internal">
        <lane id=":1469231275_6_0" index="0" disallow="tram rail_urban rail rail_electric rail_fast ship" speed="8.01" length="5.90" shape="1152.24,1121.87 1151.66,1118.04 1150.61,1116.31"/>
    </edge>
    <edge id=":1469231275_7" function="internal">
        <lane id=":1469231275_7_0" index="0" disallow="tram rail_urban rail rail_electric rail_fast ship" speed="3.65" length="2.34" shape="1152.24,1121.87 1151.43,1120.68 1150.63,1120.29"/>
    </edge>
    <edge id=":1469231275_16" function="internal">
        <lane id=":1469231275_16_0" index="0" disallow="tram rail_urban rail rail_electric rail_fast ship" speed="8.01" length="8.28" shape="1150.61,1116.31 1149.99,1115.30 1147.23,1113.66 1143.38,1113.12"/>
    </edge>
    <edge id=":1469231275_17" function="internal">
        <lane id=":1469231275_17_0" index="0" disallow="tram rail_urban rail rail_electric rail_fast ship" speed="3.65" length="2.34" shape="1150.63,1120.29 1149.83,1120.69 1149.04,1121.90"/>
    </edge>
    <edge id=":1469231275_8" function="internal">
        <lane id=":1469231275_8_0" index="0" disallow="tram rail_urban rail rail_electric rail_fast ship" speed="6.52" length="9.04" shape="1143.39,1116.32 1145.85,1116.66 1147.61,1117.71 1148.67,1119.45 1149.04,1121.90"/>
    </edge>
    <edge id=":1469231275_9" function="internal">
        <lane id=":1469231275_9_0" index="0" disallow="tram rail_urban rail rail_electric rail_fast ship" speed="2.78" length="14.44" shape="1143.39,1116.32 1157.84,1116.21"/>
    </edge>
    <edge id=":1469231275_10" function="internal">
        <lane id=":1469231275_10_0" index="0" disallow="tram rail_urban rail rail_electric rail_fast ship" speed="8.01" length="14.22" shape="1143.39,1116.32 1147.24,1115.76 1149.99,1114.09 1151.63,1111.33 1152.17,1107.47"/>
    </edge>
    <edge id=":1469231275_11" function="internal">
        <lane id=":1469231275_11_0" index="0" disallow="tram rail_urban rail rail_electric rail_fast ship" speed="2.78" length="4.67" shape="1143.39,1116.32 1144.59,1115.51 1144.99,1114.71 1144.59,1113.91 1143.38,1113.12"/>
    </edge>
    <edge id=":1469231275_12" function="internal">
        <lane id=":1469231275_12_0" index="0" disallow="tram rail_urban rail rail_electric rail_fast ship" speed="6.51" length="9.05" shape="1148.97,1107.48 1148.62,1109.94 1147.58,1111.70 1145.83,1112.76 1143.38,1113.12"/>
    </edge>
    <edge id=":1469231275_13" function="internal">
        <lane id=":1469231275_13_0" index="0" disallow="tram rail_urban rail rail_electric rail_fast ship" speed="13.89" length="14.42" shape="1148.97,1107.48 1149.04,1121.90"/>
    </edge>
    <edge id=":1469231275_14" function="internal">
        <lane id=":1469231275_14_0" index="0" disallow="tram rail_urban rail rail_electric rail_fast ship" speed="7.99" length="5.95" shape="1148.97,1107.48 1149.53,1111.34 1150.59,1113.09"/>
    </edge>
    <edge id=":1469231275_15" function="internal">
        <lane id=":1469231275_15_0" index="0" disallow="tram rail_urban rail rail_electric rail_fast ship" speed="3.65" length="2.34" shape="1148.97,1107.48 1149.77,1108.67 1150.57,1109.07"/>
    </edge>
    <edge id=":1469231275_18" function="internal">
        <lane id=":1469231275_18_0" index="0" disallow="tram rail_urban rail rail_electric rail_fast ship" speed="7.99" length="8.27" shape="1150.59,1113.09 1151.20,1114.08 1153.96,1115.71 1157.84,1116.21"/>
    </edge>
    <edge id=":1469231275_19" function="internal">
        <lane id=":1469231275_19_0" index="0" disallow="tram rail_urban rail rail_electric rail_fast ship" speed="3.65" length="2.34" shape="1150.57,1109.07 1151.37,1108.67 1152.17,1107.47"/>
    </edge>
    <edge id=":1469231286_0" function="internal">
        <lane id=":1469231286_0_0" index="0" disallow="tram rail_urban rail rail_electric rail_fast ship" speed="13.89" length="14.14" shape="1395.48,1145.02 1394.79,1141.48 1394.20,1138.07 1393.71,1134.65 1393.30,1131.06"/>
    </edge>
    <edge id=":1469231286_1" function="internal">
        <lane id=":1469231286_1_0" index="0" disallow="tram rail_urban rail rail_electric rail_fast ship" speed="7.64" length="5.91" shape="1395.48,1145.02 1394.03,1140.96 1392.89,1139.84"/>
    </edge>
    <edge id=":1469231286_2" function="internal">
        <lane id=":1469231286_2_0" index="0" disallow="tram rail_urban rail rail_electric rail_fast ship" speed="3.65" length="2.34" shape="1395.48,1145.02 1394.46,1144.01 1393.59,1143.77"/>
    </edge>
    <edge id=":1469231286_9" function="internal">
        <lane id=":1469231286_9_0" index="0" disallow="tram rail_urban rail rail_electric rail_fast ship" speed="7.64" length="9.26" shape="1392.89,1139.84 1391.69,1138.67 1388.46,1138.15 1384.33,1139.40"/>
    </edge>
    <edge id=":1469231286_10" function="internal">
        <lane id=":1469231286_10_0" index="0" disallow="tram rail_urban rail rail_electric rail_fast ship" speed="3.65" length="2.34" shape="1393.59,1143.77 1392.89,1144.33 1392.34,1145.66"/>
    </edge>
    <edge id=":1469231286_3" function="internal">
        <lane id=":1469231286_3_0" index="0" disallow="tram rail_urban rail rail_electric rail_fast ship" speed="6.06" length="9.07" shape="1385.68,1142.30 1388.15,1141.55 1390.08,1141.87 1391.48,1143.23 1392.34,1145.66"/>
    </edge>
    <edge id=":1469231286_4" function="internal">
        <lane id=":1469231286_4_0" index="0" disallow="tram rail_urban rail rail_electric rail_fast ship" speed="8.34" length="14.56" shape="1385.68,1142.30 1389.28,1140.14 1391.75,1137.55 1393.09,1134.52 1393.30,1131.06"/>
    </edge>
    <edge id=":1469231286_5" function="internal">
        <lane id=":1469231286_5_0" index="0" disallow="tram rail_urban rail rail_electric rail_fast ship" speed="2.78" length="4.67" shape="1385.68,1142.30 1386.43,1141.07 1386.45,1140.17 1385.75,1139.62 1384.33,1139.40"/>
    </edge>
    <edge id=":1469231286_6" function="internal">
        <lane id=":1469231286_6_0" index="0" disallow="tram rail_urban rail rail_electric rail_fast ship" speed="8.04" length="10.60" shape="1390.12,1131.36 1389.94,1133.78 1388.92,1135.93 1387.05,1137.80 1384.33,1139.40"/>
    </edge>
    <edge id=":1469231286_7" function="internal">
        <lane id=":1469231286_7_0" index="0" disallow="tram rail_urban rail rail_electric rail_fast ship" speed="13.89" length="14.48" shape="1390.12,1131.36 1390.53,1135.01 1391.04,1138.54 1391.64,1142.06 1392.34,1145.66"/>
    </edge>
    <edge id=":1469231286_8" function="internal">
        <lane id=":1469231286_8_0" index="0" disallow="tram rail_urban rail rail_electric rail_fast ship" speed="3.65" length="2.34" shape="1390.12,1131.36 1391.03,1132.48 1391.86,1132.80"/>
    </edge>
    <edge id=":1469231286_11" function="internal">
        <lane id=":1469231286_11_0" index="0" disallow="tram rail_urban rail rail_electric rail_fast ship" speed="3.65" length="2.34" shape="1391.86,1132.80 1392.62,1132.33 1393.30,1131.06"/>
    </edge>
    <edge id=":1837634298_0" function="internal">
        <lane id=":1837634298_0_0" index="0" disallow="tram rail_urban rail rail_electric rail_fast ship" speed="25.00" length="8.44" shape="868.74,1265.72 867.25,1263.76 866.88,1261.94 866.59,1260.06 865.29,1257.90"/>
        <lane id=":1837634298_0_1" index="1" disallow="tram rail_urban rail rail_electric rail_fast ship" speed="25.00" length="8.44" shape="868.74,1265.72 866.92,1264.13 865.70,1263.01 864.55,1261.83 862.92,1260.05"/>
    </edge>
    <edge id=":1837634298_2" function="internal">
        <lane id=":1837634298_2_0" index="0" disallow="tram rail_urban rail rail_electric rail_fast ship" speed="27.78" length="7.98" shape="858.17,1264.34 863.41,1270.31"/>
        <lane id=":1837634298_2_1" index="1" disallow="tram rail_urban rail rail_electric rail_fast ship" speed="27.78" length="7.98" shape="860.55,1262.19 865.84,1268.22"/>
    </edge>
    <edge id=":1837634342_0" function="internal">
        <lane id=":1837634342_0_0" index="0" disallow="tram rail_urban rail rail_electric rail_fast ship" speed="22.22" length="11.77" shape="1485.83,1477.52 1476.03,1484.04"/>
    </edge>
    <edge id=":1837634342_1" function="internal">
        <lane id=":1837634342_1_0" index="0" disallow="tram rail_urban rail rail_electric rail_fast ship" speed="7.36" length="4.02" shape="1485.83,1477.52 1484.11,1479.33 1483.77,1480.82"/>
    </edge>
    <edge id=":1837634342_2" function="internal">
        <lane id=":1837634342_2_0" index="0" disallow="tram rail_urban rail rail_electric rail_fast ship" speed="3.65" length="2.34" shape="1485.83,1477.52 1485.27,1478.85 1485.38,1479.74"/>
    </edge>
    <edge id=":1837634342_9" function="internal">
        <lane id=":1837634342_9_0" index="0" disallow="tram rail_urban rail rail_electric rail_fast ship" speed="7.36" length="7.71" shape="1483.77,1480.82 1483.57,1481.68 1484.20,1484.56 1486.02,1487.99"/>
    </edge>
    <edge id=":1837634342_10" function="internal">
        <lane id=":1837634342_10_0" index="0" disallow="tram rail_urban rail rail_electric rail_fast ship" speed="3.65" length="2.34" shape="1485.38,1479.74 1486.16,1480.18 1487.60,1480.19"/>
    </edge>
    <edge id=":1837634342_3" function="internal">
        <lane id=":1837634342_3_0" index="0" disallow="tram rail_urban rail rail_electric rail_fast ship" speed="6.63" length="9.50" shape="1477.80,1486.71 1480.25,1485.50 1482.43,1485.31 1484.36,1486.14 1486.02,1487.99"/>
    </edge>
    <edge id=":1837634342_4" function="internal">
        <lane id=":1837634342_4_0" index="0" disallow="tram rail_urban rail rail_electric rail_fast ship" speed="22.22" length="11.77" shape="1477.80,1486.71 1487.60,1480.19"/>
    </edge>
    <edge id=":1837634342_5" function="internal">
        <lane id=":1837634342_5_0" index="0" disallow="tram rail_urban rail rail_electric rail_fast ship" speed="3.65" length="2.34" shape="1477.80,1486.71 1478.36,1485.38 1478.25,1484.49"/>
    </edge>
    <edge id=":1837634342_11" function="internal">
        <lane id=":1837634342_11_0" index="0" disallow="tram rail_urban rail rail_electric rail_fast ship" speed="3.65" length="2.34" shape="1478.25,1484.49 1477.47,1484.04 1476.03,1484.04"/>
    </edge>
    <edge id=":1837634342_6" function="internal">
        <lane id=":1837634342_6_0" index="0" disallow="tram rail_urban rail rail_electric rail_fast ship" speed="6.15" length="9.06" shape="1476.86,1476.50 1478.34,1478.57 1478.70,1480.52 1477.93,1482.34 1476.03,1484.04"/>
    </edge>
    <edge id=":1837634342_7" function="internal">
        <lane id=":1837634342_7_0" index="0" disallow="tram rail_urban rail rail_electric rail_fast ship" speed="11.11" length="14.71" shape="1476.86,1476.50 1479.37,1479.23 1481.72,1482.03 1483.92,1484.93 1486.02,1487.99"/>
    </edge>
    <edge id=":1837634342_8" function="internal">
        <lane id=":1837634342_8_0" index="0" disallow="tram rail_urban rail rail_electric rail_fast ship" speed="8.03" length="12.33" shape="1476.86,1476.50 1479.91,1479.21 1482.72,1480.73 1485.29,1481.05 1487.60,1480.19"/>
    </edge>
    <edge id=":1837634346_0" function="internal">
        <lane id=":1837634346_0_0" index="0" disallow="tram rail_urban rail rail_electric rail_fast ship" speed="3.65" length="4.67" shape="819.01,1532.28 818.14,1533.43 818.02,1534.31 818.66,1534.94 820.05,1535.31"/>
    </edge>
    <edge id=":1843585363_0" function="internal">
        <lane id=":1843585363_0_0" index="0" disallow="tram rail_urban rail rail_electric rail_fast ship" speed="3.65" length="4.67" shape="2294.61,1541.86 2296.04,1541.73 2296.78,1541.22 2296.81,1540.33 2296.13,1539.05"/>
    </edge>
    <edge id=":2228426718_0" function="internal">
        <lane id=":2228426718_0_0" index="0" disallow="tram rail_urban rail rail_electric rail_fast ship" speed="6.27" length="9.04" shape="1291.39,1606.87 1289.12,1607.95 1287.12,1607.99 1285.39,1606.98 1283.93,1604.93"/>
    </edge>
    <edge id=":2228426718_1" function="internal">
        <lane id=":2228426718_1_0" index="0" disallow="tram rail_urban rail rail_electric rail_fast ship" speed="22.22" length="14.75" shape="1291.39,1606.87 1278.94,1614.79"/>
    </edge>
    <edge id=":2228426718_2" function="internal">
        <lane id=":2228426718_2_0" index="0" disallow="tram rail_urban rail rail_electric rail_fast ship" speed="3.65" length="4.67" shape="1291.39,1606.87 1290.84,1608.20 1290.95,1609.09 1291.72,1609.53 1293.17,1609.54"/>
    </edge>
    <edge id=":2228426718_3" function="internal">
        <lane id=":2228426718_3_0" index="0" disallow="tram rail_urban rail rail_electric rail_fast ship" speed="6.83" length="9.65" shape="1291.02,1617.83 1290.06,1615.46 1290.10,1613.29 1291.14,1611.31 1293.17,1609.54"/>
    </edge>
    <edge id=":2228426718_4" function="internal">
        <lane id=":2228426718_4_0" index="0" disallow="tram rail_urban rail rail_electric rail_fast ship" speed="27.78" length="14.82" shape="1291.02,1617.83 1283.93,1604.93"/>
        <lane id=":2228426718_4_1" index="1" disallow="tram rail_urban rail rail_electric rail_fast ship" speed="27.78" length="14.82" shape="1288.26,1619.45 1281.08,1606.39"/>
    </edge>
    <edge id=":2228426718_6" function="internal">
        <lane id=":2228426718_6_0" index="0" disallow="tram rail_urban rail rail_electric rail_fast ship" speed="7.30" length="11.75" shape="1288.26,1619.45 1286.00,1616.31 1283.69,1614.49 1281.34,1613.98 1278.94,1614.79"/>
    </edge>
    <edge id=":2228426718_7" function="internal">
        <lane id=":2228426718_7_0" index="0" disallow="tram rail_urban rail rail_electric rail_fast ship" speed="22.22" length="14.89" shape="1280.60,1617.53 1293.17,1609.54"/>
    </edge>
    <edge id=":2228426718_8" function="internal">
        <lane id=":2228426718_8_0" index="0" disallow="tram rail_urban rail rail_electric rail_fast ship" speed="7.69" length="12.33" shape="1280.60,1617.53 1282.40,1615.76 1283.08,1613.31 1282.64,1610.19 1281.08,1606.39"/>
    </edge>
    <edge id=":2228426718_9" function="internal">
        <lane id=":2228426718_9_0" index="0" disallow="tram rail_urban rail rail_electric rail_fast ship" speed="3.65" length="4.67" shape="1280.60,1617.53 1281.21,1616.22 1281.14,1615.33 1280.39,1614.85 1278.94,1614.79"/>
    </edge>
    <edge id=":2334256437_0" function="internal">
        <lane id=":2334256437_0_0" index="0" disallow="tram rail_urban rail rail_electric rail_fast ship" speed="2.78" length="4.67" shape="1295.47,769.34 1294.41,768.36 1293.53,768.16 1292.85,768.74 1292.36,770.09"/>
    </edge>
    <edge id=":2334256442_0" function="internal">