<?xml version="1.0" encoding="UTF-8"?>

<!-- generated on Thu Nov 19 13:40:12 2020 by Eclipse SUMO netconvert Version 1.7.0
<configuration xmlns:xsi="http://www.w3.org/2001/XMLSchema-instance" xsi:noNamespaceSchemaLocation="http://sumo.dlr.de/xsd/netconvertConfiguration.xsd">

    <input>
        <type-files value="/usr/share/sumo/data/typemap/osmNetconvert.typ.xml"/>
        <osm-files value="osm_bbox.osm.xml"/>
    </input>

    <output>
        <output-file value="osm.net.xml"/>
        <output.street-names value="true"/>
        <output.original-names value="true"/>
    </output>

    <projection>
        <proj.utm value="true"/>
    </projection>

    <processing>
        <geometry.remove value="true"/>
        <roundabouts.guess value="true"/>
        <lefthand value="true"/>
    </processing>

    <tls_building>
        <tls.discard-simple value="true"/>
        <tls.join value="true"/>
        <tls.guess-signals value="true"/>
        <tls.default-type value="actuated"/>
    </tls_building>

    <ramp_guessing>
        <ramps.guess value="true"/>
    </ramp_guessing>

    <junctions>
        <junctions.join value="true"/>
        <junctions.corner-detail value="5"/>
    </junctions>

    <report>
        <verbose value="true"/>
        <aggregate-warnings value="5"/>
    </report>

</configuration>
-->

<net version="1.6" junctionCornerDetail="5" lefthand="true" limitTurnSpeed="5.50" xmlns:xsi="http://www.w3.org/2001/XMLSchema-instance" xsi:noNamespaceSchemaLocation="http://sumo.dlr.de/xsd/net_file.xsd">

    <location netOffset="-733245.52,-2958670.59" convBoundary="0.00,-0.00,6092.22,3905.77" origBoundary="83.341588,26.713856,83.445306,26.824534" projParameter="+proj=utm +zone=44 +ellps=WGS84 +datum=WGS84 +units=m +no_defs"/>

    <type id="highway.bridleway" priority="1" numLanes="1" speed="2.78" allow="pedestrian" oneway="1" width="2.00"/>
    <type id="highway.bus_guideway" priority="1" numLanes="1" speed="27.78" allow="bus" oneway="1"/>
    <type id="highway.cycleway" priority="1" numLanes="1" speed="8.33" allow="bicycle" oneway="0" width="1.00"/>
    <type id="highway.footway" priority="1" numLanes="1" speed="2.78" allow="pedestrian" oneway="1" width="2.00"/>
    <type id="highway.ford" priority="1" numLanes="1" speed="2.78" allow="army" oneway="0"/>
    <type id="highway.living_street" priority="2" numLanes="1" speed="2.78" disallow="tram rail_urban rail rail_electric rail_fast ship" oneway="0"/>
    <type id="highway.motorway" priority="14" numLanes="2" speed="39.44" allow="private emergency authority army vip passenger hov taxi bus coach delivery truck trailer motorcycle evehicle custom1 custom2" oneway="1"/>
    <type id="highway.motorway_link" priority="9" numLanes="1" speed="22.22" allow="private emergency authority army vip passenger hov taxi bus coach delivery truck trailer motorcycle evehicle custom1 custom2" oneway="1"/>
    <type id="highway.path" priority="1" numLanes="1" speed="2.78" allow="pedestrian bicycle" oneway="1" width="2.00"/>
    <type id="highway.pedestrian" priority="1" numLanes="1" speed="2.78" allow="pedestrian" oneway="1" width="2.00"/>
    <type id="highway.primary" priority="12" numLanes="2" speed="27.78" disallow="tram rail_urban rail rail_electric rail_fast ship" oneway="0"/>
    <type id="highway.primary_link" priority="7" numLanes="1" speed="22.22" disallow="tram rail_urban rail rail_electric rail_fast ship" oneway="0"/>
    <type id="highway.raceway" priority="15" numLanes="2" speed="83.33" allow="vip" oneway="0"/>
    <type id="highway.residential" priority="3" numLanes="1" speed="13.89" disallow="tram rail_urban rail rail_electric rail_fast ship" oneway="0"/>
    <type id="highway.secondary" priority="11" numLanes="1" speed="27.78" disallow="tram rail_urban rail rail_electric rail_fast ship" oneway="0"/>
    <type id="highway.secondary_link" priority="6" numLanes="1" speed="22.22" disallow="tram rail_urban rail rail_electric rail_fast ship" oneway="0"/>
    <type id="highway.service" priority="1" numLanes="1" speed="5.56" allow="pedestrian delivery bicycle" oneway="0"/>
    <type id="highway.stairs" priority="1" numLanes="1" speed="1.39" allow="pedestrian" oneway="1" width="2.00"/>
    <type id="highway.step" priority="1" numLanes="1" speed="1.39" allow="pedestrian" oneway="1" width="2.00"/>
    <type id="highway.steps" priority="1" numLanes="1" speed="1.39" allow="pedestrian" oneway="1" width="2.00"/>
    <type id="highway.tertiary" priority="10" numLanes="1" speed="22.22" disallow="tram rail_urban rail rail_electric rail_fast ship" oneway="0"/>
    <type id="highway.tertiary_link" priority="5" numLanes="1" speed="22.22" disallow="tram rail_urban rail rail_electric rail_fast ship" oneway="0"/>
    <type id="highway.track" priority="1" numLanes="1" speed="5.56" allow="pedestrian motorcycle moped bicycle" oneway="0"/>
    <type id="highway.trunk" priority="13" numLanes="2" speed="27.78" disallow="pedestrian bicycle tram rail_urban rail rail_electric rail_fast ship" oneway="0"/>
    <type id="highway.trunk_link" priority="8" numLanes="1" speed="22.22" disallow="pedestrian bicycle tram rail_urban rail rail_electric rail_fast ship" oneway="0"/>
    <type id="highway.unclassified" priority="4" numLanes="1" speed="13.89" disallow="tram rail_urban rail rail_electric rail_fast ship" oneway="0"/>
    <type id="highway.unsurfaced" priority="1" numLanes="1" speed="8.33" disallow="tram rail_urban rail rail_electric rail_fast ship" oneway="0"/>
    <type id="railway.highspeed" priority="21" numLanes="1" speed="69.44" allow="rail_fast" oneway="1"/>
    <type id="railway.light_rail" priority="19" numLanes="1" speed="27.78" allow="rail_urban" oneway="1"/>
    <type id="railway.preserved" priority="16" numLanes="1" speed="27.78" allow="rail" oneway="1"/>
    <type id="railway.rail" priority="20" numLanes="1" speed="44.44" allow="rail" oneway="1"/>
    <type id="railway.subway" priority="18" numLanes="1" speed="27.78" allow="rail_urban" oneway="1"/>
    <type id="railway.tram" priority="17" numLanes="1" speed="13.89" allow="tram" oneway="1"/>

    <edge id=":1010179822_0" function="internal">
        <lane id=":1010179822_0_0" index="0" disallow="tram rail_urban rail rail_electric rail_fast ship" speed="22.22" length="8.46" shape="3822.72,3196.34 3820.42,3197.33 3818.80,3197.93 3817.14,3198.37 3814.69,3198.91"/>
    </edge>
    <edge id=":1010179822_1" function="internal">
        <lane id=":1010179822_1_0" index="0" allow="pedestrian delivery bicycle" speed="7.22" length="4.70" shape="3822.72,3196.34 3820.62,3197.67 3819.31,3199.46"/>
    </edge>
    <edge id=":1010179822_2" function="internal">
        <lane id=":1010179822_2_0" index="0" disallow="tram rail_urban rail rail_electric rail_fast ship" speed="3.65" length="2.34" shape="3822.72,3196.34 3821.95,3197.56 3821.91,3198.45"/>
    </edge>
    <edge id=":1010179822_9" function="internal">
        <lane id=":1010179822_9_0" index="0" allow="pedestrian delivery bicycle" speed="7.22" length="5.00" shape="3819.31,3199.46 3818.80,3201.69 3819.07,3204.38"/>
    </edge>
    <edge id=":1010179822_10" function="internal">
        <lane id=":1010179822_10_0" index="0" disallow="tram rail_urban rail rail_electric rail_fast ship" speed="3.65" length="2.34" shape="3821.91,3198.45 3822.60,3199.02 3824.02,3199.26"/>
    </edge>
    <edge id=":1010179822_3" function="internal">
        <lane id=":1010179822_3_0" index="0" allow="pedestrian delivery bicycle" speed="5.48" length="5.22" shape="3822.19,3203.66 3822.02,3202.16 3822.27,3200.93 3822.94,3199.97 3824.02,3199.26"/>
    </edge>
    <edge id=":1010179822_4" function="internal">
        <lane id=":1010179822_4_0" index="0" allow="pedestrian delivery bicycle" speed="6.87" length="10.10" shape="3822.19,3203.66 3821.20,3201.08 3819.61,3199.43 3817.44,3198.71 3814.69,3198.91"/>
    </edge>
    <edge id=":1010179822_5" function="internal">
        <lane id=":1010179822_5_0" index="0" allow="pedestrian delivery bicycle" speed="3.65" length="4.67" shape="3822.19,3203.66 3821.14,3202.67 3820.27,3202.46 3819.58,3203.03 3819.07,3204.38"/>
    </edge>
    <edge id=":1010179822_6" function="internal">
        <lane id=":1010179822_6_0" index="0" allow="pedestrian delivery bicycle" speed="5.05" length="4.98" shape="3815.37,3202.04 3816.73,3201.94 3817.80,3202.29 3818.58,3203.11 3819.07,3204.38"/>
    </edge>
    <edge id=":1010179822_7" function="internal">
        <lane id=":1010179822_7_0" index="0" disallow="tram rail_urban rail rail_electric rail_fast ship" speed="22.22" length="9.11" shape="3815.37,3202.04 3818.01,3201.45 3819.80,3200.98 3821.54,3200.34 3824.02,3199.26"/>
    </edge>
    <edge id=":1010179822_8" function="internal">
        <lane id=":1010179822_8_0" index="0" disallow="tram rail_urban rail rail_electric rail_fast ship" speed="3.65" length="2.34" shape="3815.37,3202.04 3816.37,3201.00 3816.59,3200.13"/>
    </edge>
    <edge id=":1010179822_11" function="internal">
        <lane id=":1010179822_11_0" index="0" disallow="tram rail_urban rail rail_electric rail_fast ship" speed="3.65" length="2.34" shape="3816.59,3200.13 3816.03,3199.44 3814.69,3198.91"/>
    </edge>
    <edge id=":1010179832_0" function="internal">
        <lane id=":1010179832_0_0" index="0" disallow="tram rail_urban rail rail_electric rail_fast ship" speed="27.78" length="14.73" shape="2991.25,2701.81 2976.81,2704.74"/>
    </edge>
    <edge id=":1010179832_1" function="internal">
        <lane id=":1010179832_1_0" index="0" disallow="tram rail_urban rail rail_electric rail_fast ship" speed="8.03" length="6.27" shape="2991.25,2701.81 2987.53,2703.00 2985.75,2704.56"/>
    </edge>
    <edge id=":1010179832_2" function="internal">
        <lane id=":1010179832_2_0" index="0" disallow="tram rail_urban rail rail_electric rail_fast ship" speed="3.65" length="2.34" shape="2991.25,2701.81 2990.19,2702.80 2989.93,2703.66"/>
    </edge>
    <edge id=":1010179832_9" function="internal">
        <lane id=":1010179832_9_0" index="0" disallow="tram rail_urban rail rail_electric rail_fast ship" speed="8.03" length="8.10" shape="2985.75,2704.56 2985.10,2705.12 2983.94,2708.17 2984.07,2712.15"/>
    </edge>
    <edge id=":1010179832_10" function="internal">
        <lane id=":1010179832_10_0" index="0" disallow="tram rail_urban rail rail_electric rail_fast ship" speed="3.65" length="2.34" shape="2989.93,2703.66 2990.46,2704.38 2991.77,2704.97"/>
    </edge>
    <edge id=":1010179832_3" function="internal">
        <lane id=":1010179832_3_0" index="0" disallow="tram rail_urban rail rail_electric rail_fast ship" speed="6.55" length="9.19" shape="2987.22,2711.61 2987.14,2709.05 2987.87,2707.09 2989.41,2705.73 2991.77,2704.97"/>
    </edge>
    <edge id=":1010179832_4" function="internal">
        <lane id=":1010179832_4_0" index="0" disallow="tram rail_urban rail rail_electric rail_fast ship" speed="7.89" length="14.44" shape="2987.22,2711.61 2985.99,2707.81 2983.85,2705.40 2980.79,2704.38 2976.81,2704.74"/>
    </edge>
    <edge id=":1010179832_5" function="internal">
        <lane id=":1010179832_5_0" index="0" disallow="tram rail_urban rail rail_electric rail_fast ship" speed="3.65" length="4.67" shape="2987.22,2711.61 2986.23,2710.56 2985.38,2710.30 2984.65,2710.83 2984.07,2712.15"/>
    </edge>
    <edge id=":1010179832_6" function="internal">
        <lane id=":1010179832_6_0" index="0" disallow="tram rail_urban rail rail_electric rail_fast ship" speed="6.37" length="9.04" shape="2977.55,2707.85 2980.04,2707.62 2981.96,2708.27 2983.30,2709.77 2984.07,2712.15"/>
    </edge>
    <edge id=":1010179832_7" function="internal">
        <lane id=":1010179832_7_0" index="0" disallow="tram rail_urban rail rail_electric rail_fast ship" speed="27.78" length="14.51" shape="2977.55,2707.85 2991.77,2704.97"/>
    </edge>
    <edge id=":1010179832_8" function="internal">
        <lane id=":1010179832_8_0" index="0" disallow="tram rail_urban rail rail_electric rail_fast ship" speed="3.65" length="2.34" shape="2977.55,2707.85 2978.53,2706.80 2978.74,2705.92"/>
    </edge>
    <edge id=":1010179832_11" function="internal">
        <lane id=":1010179832_11_0" index="0" disallow="tram rail_urban rail rail_electric rail_fast ship" speed="3.65" length="2.34" shape="2978.74,2705.92 2978.16,2705.24 2976.81,2704.74"/>
    </edge>
    <edge id=":1010179843_0" function="internal">
        <lane id=":1010179843_0_0" index="0" disallow="tram rail_urban rail rail_electric rail_fast ship" speed="22.22" length="20.14" shape="2281.33,3457.54 2262.52,3464.73"/>
    </edge>
    <edge id=":1010179843_1" function="internal">
        <lane id=":1010179843_1_0" index="0" disallow="tram rail_urban rail rail_electric rail_fast ship" speed="6.40" length="4.53" shape="2281.33,3457.54 2278.12,3460.11 2278.02,3460.52"/>
    </edge>
    <edge id=":1010179843_2" function="internal">
        <lane id=":1010179843_2_0" index="0" disallow="tram rail_urban rail rail_electric rail_fast ship" speed="3.65" length="2.34" shape="2281.33,3457.54 2280.50,3458.72 2280.42,3459.61"/>
    </edge>
    <edge id=":1010179843_9" function="internal">
        <lane id=":1010179843_9_0" index="0" disallow="tram rail_urban rail rail_electric rail_fast ship" speed="6.40" length="10.95" shape="2278.02,3460.52 2277.29,3463.64 2278.74,3466.96 2282.36,3468.91"/>
    </edge>
    <edge id=":1010179843_10" function="internal">
        <lane id=":1010179843_10_0" index="0" disallow="tram rail_urban rail rail_electric rail_fast ship" speed="3.65" length="2.34" shape="2280.42,3459.61 2281.08,3460.21 2282.48,3460.53"/>
    </edge>
    <edge id=":1010179843_3" function="internal">
        <lane id=":1010179843_3_0" index="0" disallow="tram rail_urban rail rail_electric rail_fast ship" speed="5.50" length="10.93" shape="2282.96,3465.77 2279.38,3464.77 2278.11,3463.56 2279.14,3462.15 2282.48,3460.53"/>
    </edge>
    <edge id=":1010179843_4" function="internal">
        <lane id=":1010179843_4_0" index="0" disallow="tram rail_urban rail rail_electric rail_fast ship" speed="20.10" length="20.61" shape="2282.96,3465.77 2278.35,3464.97 2272.65,3464.24 2267.00,3464.02 2262.52,3464.73"/>
    </edge>
    <edge id=":1010179843_5" function="internal">
        <lane id=":1010179843_5_0" index="0" disallow="tram rail_urban rail rail_electric rail_fast ship" speed="3.65" length="4.67" shape="2282.96,3465.77 2281.63,3466.33 2281.09,3467.04 2281.33,3467.91 2282.36,3468.91"/>
    </edge>
    <edge id=":1010179843_6" function="internal">
        <lane id=":1010179843_6_0" index="0" disallow="tram rail_urban rail rail_electric rail_fast ship" speed="19.27" length="18.92" shape="2263.64,3467.72 2267.85,3467.04 2272.92,3467.31 2278.02,3468.09 2282.36,3468.91"/>
    </edge>
    <edge id=":1010179843_7" function="internal">
        <lane id=":1010179843_7_0" index="0" disallow="tram rail_urban rail rail_electric rail_fast ship" speed="22.22" length="20.17" shape="2263.64,3467.72 2282.48,3460.53"/>
    </edge>
    <edge id=":1010179843_8" function="internal">
        <lane id=":1010179843_8_0" index="0" disallow="tram rail_urban rail rail_electric rail_fast ship" speed="3.65" length="2.34" shape="2263.64,3467.72 2264.49,3466.55 2264.58,3465.66"/>
    </edge>
    <edge id=":1010179843_11" function="internal">
        <lane id=":1010179843_11_0" index="0" disallow="tram rail_urban rail rail_electric rail_fast ship" speed="3.65" length="2.34" shape="2264.58,3465.66 2263.93,3465.05 2262.52,3464.73"/>
    </edge>
    <edge id=":1010179849_0" function="internal">
        <lane id=":1010179849_0_0" index="0" disallow="tram rail_urban rail rail_electric rail_fast ship" speed="3.90" length="2.68" shape="2764.62,3394.44 2765.35,3394.34 2765.86,3394.02 2766.15,3393.50 2766.22,3392.76"/>
    </edge>
    <edge id=":1010179857_0" function="internal">
        <lane id=":1010179857_0_0" index="0" allow="pedestrian delivery bicycle" speed="5.04" length="5.00" shape="3554.56,3264.58 3554.42,3263.21 3554.74,3262.13 3555.54,3261.33 3556.81,3260.81"/>
    </edge>
    <edge id=":1010179857_1" function="internal">
        <lane id=":1010179857_1_0" index="0" allow="pedestrian delivery bicycle" speed="5.56" length="6.26" shape="3554.56,3264.58 3553.00,3258.51"/>
    </edge>
    <edge id=":1010179857_2" function="internal">
        <lane id=":1010179857_2_0" index="0" allow="pedestrian delivery bicycle" speed="3.65" length="4.67" shape="3554.56,3264.58 3553.49,3263.61 3552.62,3263.42 3551.94,3264.01 3551.46,3265.37"/>
    </edge>
    <edge id=":1010179857_3" function="internal">
        <lane id=":1010179857_3_0" index="0" allow="pedestrian delivery bicycle" speed="5.07" length="5.04" shape="3547.66,3263.09 3549.04,3262.95 3550.13,3263.29 3550.94,3264.09 3551.46,3265.37"/>
    </edge>
    <edge id=":1010179857_4" function="internal">
        <lane id=":1010179857_4_0" index="0" disallow="tram rail_urban rail rail_electric rail_fast ship" speed="22.22" length="9.43" shape="3547.66,3263.09 3556.81,3260.81"/>
    </edge>
    <edge id=":1010179857_5" function="internal">
        <lane id=":1010179857_5_0" index="0" allow="pedestrian delivery bicycle" speed="6.07" length="7.79" shape="3547.66,3263.09 3550.30,3262.24 3552.06,3261.19 3552.97,3259.95 3553.00,3258.51"/>
    </edge>
    <edge id=":1010179857_6" function="internal">
        <lane id=":1010179857_6_0" index="0" allow="pedestrian delivery bicycle" speed="5.56" length="6.24" shape="3549.90,3259.32 3551.46,3265.37"/>
    </edge>
    <edge id=":1010179857_7" function="internal">
        <lane id=":1010179857_7_0" index="0" allow="pedestrian delivery bicycle" speed="6.11" length="7.80" shape="3549.90,3259.32 3550.63,3260.55 3552.02,3261.21 3554.08,3261.29 3556.81,3260.81"/>
    </edge>
    <edge id=":1010179857_8" function="internal">
        <lane id=":1010179857_8_0" index="0" allow="pedestrian delivery bicycle" speed="3.65" length="4.67" shape="3549.90,3259.32 3550.98,3260.28 3551.86,3260.47 3552.53,3259.88 3553.00,3258.51"/>
    </edge>
    <edge id=":1010179860_0" function="internal">
        <lane id=":1010179860_0_0" index="0" disallow="tram rail_urban rail rail_electric rail_fast ship" speed="22.22" length="11.87" shape="3546.00,2875.15 3545.58,2871.92 3545.32,2869.26 3545.17,2866.59 3545.07,2863.33"/>
    </edge>
    <edge id=":1010179860_1" function="internal">
        <lane id=":1010179860_1_0" index="0" disallow="tram rail_urban rail rail_electric rail_fast ship" speed="7.32" length="4.68" shape="3546.00,2875.15 3544.96,2872.04 3543.90,2871.13"/>
    </edge>
    <edge id=":1010179860_2" function="internal">
        <lane id=":1010179860_2_0" index="0" disallow="tram rail_urban rail rail_electric rail_fast ship" speed="3.65" length="2.34" shape="3546.00,2875.15 3545.04,2874.07 3544.20,2873.79"/>
    </edge>
    <edge id=":1010179860_9" function="internal">
        <lane id=":1010179860_9_0" index="0" disallow="tram rail_urban rail rail_electric rail_fast ship" speed="7.32" length="8.68" shape="3543.90,2871.13 3542.89,2870.26 3539.79,2869.82 3535.67,2870.72"/>
    </edge>
    <edge id=":1010179860_10" function="internal">
        <lane id=":1010179860_10_0" index="0" disallow="tram rail_urban rail rail_electric rail_fast ship" speed="3.65" length="2.34" shape="3544.20,2873.79 3543.46,2874.30 3542.83,2875.59"/>
    </edge>
    <edge id=":1010179860_3" function="internal">
        <lane id=":1010179860_3_0" index="0" disallow="tram rail_urban rail rail_electric rail_fast ship" speed="5.66" length="7.51" shape="3536.69,2873.75 3539.18,2873.15 3541.04,2873.26 3542.25,2874.08 3542.83,2875.59"/>
    </edge>
    <edge id=":1010179860_4" function="internal">
        <lane id=":1010179860_4_0" index="0" disallow="tram rail_urban rail rail_electric rail_fast ship" speed="9.11" length="14.42" shape="3536.69,2873.75 3540.43,2872.02 3543.07,2869.70 3544.61,2866.81 3545.07,2863.33"/>
    </edge>
    <edge id=":1010179860_5" function="internal">
        <lane id=":1010179860_5_0" index="0" disallow="tram rail_urban rail rail_electric rail_fast ship" speed="3.65" length="4.67" shape="3536.69,2873.75 3537.57,2872.61 3537.70,2871.72 3537.06,2871.09 3535.67,2870.72"/>
    </edge>
    <edge id=":1010179860_6" function="internal">
        <lane id=":1010179860_6_0" index="0" disallow="tram rail_urban rail rail_electric rail_fast ship" speed="7.79" length="10.32" shape="3541.87,2863.41 3541.53,2865.81 3540.38,2867.82 3538.43,2869.46 3535.67,2870.72"/>
    </edge>
    <edge id=":1010179860_7" function="internal">
        <lane id=":1010179860_7_0" index="0" disallow="tram rail_urban rail rail_electric rail_fast ship" speed="22.22" length="12.23" shape="3541.87,2863.41 3541.97,2866.72 3542.14,2869.52 3542.41,2872.30 3542.83,2875.59"/>
    </edge>
    <edge id=":1010179860_8" function="internal">
        <lane id=":1010179860_8_0" index="0" disallow="tram rail_urban rail rail_electric rail_fast ship" speed="3.65" length="2.34" shape="3541.87,2863.41 3542.70,2864.59 3543.51,2864.97"/>
    </edge>
    <edge id=":1010179860_11" function="internal">
        <lane id=":1010179860_11_0" index="0" disallow="tram rail_urban rail rail_electric rail_fast ship" speed="3.65" length="2.34" shape="3543.51,2864.97 3544.30,2864.55 3545.07,2863.33"/>
    </edge>
    <edge id=":1010179864_0" function="internal">
        <lane id=":1010179864_0_0" index="0" disallow="tram rail_urban rail rail_electric rail_fast ship" speed="6.13" length="9.06" shape="2211.44,2944.87 2209.01,2945.65 2207.05,2945.38 2205.57,2944.08 2204.57,2941.73"/>
    </edge>
    <edge id=":1010179864_1" function="internal">
        <lane id=":1010179864_1_0" index="0" disallow="tram rail_urban rail rail_electric rail_fast ship" speed="22.22" length="15.85" shape="2211.44,2944.87 2207.97,2946.61 2204.40,2948.51 2200.87,2950.47 2197.52,2952.44"/>
    </edge>
    <edge id=":1010179864_2" function="internal">
        <lane id=":1010179864_2_0" index="0" disallow="tram rail_urban rail rail_electric rail_fast ship" speed="8.60" length="6.51" shape="2211.44,2944.87 2207.97,2947.20 2206.65,2949.12"/>
    </edge>
    <edge id=":1010179864_3" function="internal">
        <lane id=":1010179864_3_0" index="0" disallow="tram rail_urban rail rail_electric rail_fast ship" speed="3.65" length="2.34" shape="2211.44,2944.87 2210.72,2946.11 2210.71,2947.01"/>
    </edge>
    <edge id=":1010179864_16" function="internal">
        <lane id=":1010179864_16_0" index="0" disallow="tram rail_urban rail rail_electric rail_fast ship" speed="8.60" length="8.89" shape="2206.65,2949.12 2205.97,2950.11 2205.42,2953.60 2206.34,2957.65"/>
    </edge>
    <edge id=":1010179864_17" function="internal">
        <lane id=":1010179864_17_0" index="0" disallow="tram rail_urban rail rail_electric rail_fast ship" speed="3.65" length="2.34" shape="2210.71,2947.01 2211.42,2947.55 2212.84,2947.75"/>
    </edge>
    <edge id=":1010179864_4" function="internal">
        <lane id=":1010179864_4_0" index="0" disallow="tram rail_urban rail rail_electric rail_fast ship" speed="7.22" length="10.57" shape="2209.33,2956.52 2208.70,2953.74 2209.08,2951.35 2210.46,2949.35 2212.84,2947.75"/>
    </edge>
    <edge id=":1010179864_5" function="internal">
        <lane id=":1010179864_5_0" index="0" disallow="tram rail_urban rail rail_electric rail_fast ship" speed="22.22" length="15.54" shape="2209.33,2956.52 2208.02,2952.92 2206.77,2949.18 2205.61,2945.42 2204.57,2941.73"/>
    </edge>
    <edge id=":1010179864_6" function="internal">
        <lane id=":1010179864_6_0" index="0" disallow="tram rail_urban rail rail_electric rail_fast ship" speed="7.71" length="14.93" shape="2209.33,2956.52 2207.30,2952.84 2204.65,2950.94 2201.39,2950.80 2197.52,2952.44"/>
    </edge>
    <edge id=":1010179864_7" function="internal">
        <lane id=":1010179864_7_0" index="0" disallow="tram rail_urban rail rail_electric rail_fast ship" speed="3.65" length="4.67" shape="2209.33,2956.52 2208.16,2955.68 2207.27,2955.59 2206.66,2956.25 2206.34,2957.65"/>
    </edge>
    <edge id=":1010179864_8" function="internal">
        <lane id=":1010179864_8_0" index="0" disallow="tram rail_urban rail rail_electric rail_fast ship" speed="6.15" length="9.06" shape="2199.17,2955.18 2201.52,2954.19 2203.50,2954.27 2205.10,2955.42 2206.34,2957.65"/>
    </edge>
    <edge id=":1010179864_9" function="internal">
        <lane id=":1010179864_9_0" index="0" disallow="tram rail_urban rail rail_electric rail_fast ship" speed="22.22" length="15.57" shape="2199.17,2955.18 2202.48,2953.24 2205.93,2951.31 2209.41,2949.47 2212.84,2947.75"/>
    </edge>
    <edge id=":1010179864_10" function="internal">
        <lane id=":1010179864_10_0" index="0" disallow="tram rail_urban rail rail_electric rail_fast ship" speed="9.41" length="6.25" shape="2199.17,2955.18 2202.41,2952.59 2203.54,2950.82"/>
    </edge>
    <edge id=":1010179864_11" function="internal">
        <lane id=":1010179864_11_0" index="0" disallow="tram rail_urban rail rail_electric rail_fast ship" speed="3.65" length="2.34" shape="2199.17,2955.18 2199.79,2953.87 2199.72,2952.98"/>
    </edge>
    <edge id=":1010179864_18" function="internal">
        <lane id=":1010179864_18_0" index="0" disallow="tram rail_urban rail rail_electric rail_fast ship" speed="9.41" length="9.44" shape="2203.54,2950.82 2204.39,2949.48 2205.11,2945.86 2204.57,2941.73"/>
    </edge>
    <edge id=":1010179864_19" function="internal">
        <lane id=":1010179864_19_0" index="0" disallow="tram rail_urban rail rail_electric rail_fast ship" speed="3.65" length="2.34" shape="2199.72,2952.98 2198.96,2952.50 2197.52,2952.44"/>
    </edge>
    <edge id=":1010179864_12" function="internal">
        <lane id=":1010179864_12_0" index="0" disallow="tram rail_urban rail rail_electric rail_fast ship" speed="8.14" length="11.53" shape="2201.48,2942.55 2201.88,2945.59 2201.35,2948.25 2199.90,2950.54 2197.52,2952.44"/>
    </edge>
    <edge id=":1010179864_13" function="internal">
        <lane id=":1010179864_13_0" index="0" disallow="tram rail_urban rail rail_electric rail_fast ship" speed="22.22" length="15.87" shape="2201.48,2942.55 2202.53,2946.29 2203.73,2950.16 2205.01,2954.00 2206.34,2957.65"/>
    </edge>
    <edge id=":1010179864_14" function="internal">
        <lane id=":1010179864_14_0" index="0" disallow="tram rail_urban rail rail_electric rail_fast ship" speed="7.70" length="14.98" shape="2201.48,2942.55 2203.14,2946.44 2205.59,2948.60 2208.82,2949.04 2212.84,2947.75"/>
    </edge>
    <edge id=":1010179864_15" function="internal">
        <lane id=":1010179864_15_0" index="0" disallow="tram rail_urban rail rail_electric rail_fast ship" speed="3.65" length="4.67" shape="2201.48,2942.55 2202.56,2943.51 2203.44,2943.69 2204.11,2943.09 2204.57,2941.73"/>
    </edge>
    <edge id=":1010179872_0" function="internal">
        <lane id=":1010179872_0_0" index="0" disallow="tram rail_urban rail rail_electric rail_fast ship" speed="22.22" length="29.07" shape="2341.48,3487.03 2336.88,3483.44 2331.03,3477.17 2325.52,3470.49 2321.98,3465.66"/>
    </edge>
    <edge id=":1010179872_1" function="internal">
        <lane id=":1010179872_1_0" index="0" disallow="tram rail_urban rail rail_electric rail_fast ship" speed="22.22" length="29.79" shape="2341.48,3487.03 2336.19,3484.10 2328.66,3479.46 2321.13,3474.82 2315.83,3471.91"/>
    </edge>
    <edge id=":1010179872_2" function="internal">
        <lane id=":1010179872_2_0" index="0" disallow="tram rail_urban rail rail_electric rail_fast ship" speed="3.65" length="2.17" shape="2341.48,3487.03 2340.06,3487.28 2339.50,3487.75"/>
    </edge>
    <edge id=":1010179872_9" function="internal">
        <lane id=":1010179872_9_0" index="0" disallow="tram rail_urban rail rail_electric rail_fast ship" speed="3.65" length="2.50" shape="2339.50,3487.75 2339.38,3487.86 2339.42,3488.75 2340.20,3489.96"/>
    </edge>
    <edge id=":1010179872_3" function="internal">
        <lane id=":1010179872_3_0" index="0" disallow="tram rail_urban rail rail_electric rail_fast ship" speed="22.22" length="30.40" shape="2313.97,3474.60 2319.37,3477.55 2327.09,3482.27 2334.82,3486.99 2340.20,3489.96"/>
    </edge>
    <edge id=":1010179872_4" function="internal">
        <lane id=":1010179872_4_0" index="0" disallow="tram rail_urban rail rail_electric rail_fast ship" speed="6.59" length="4.37" shape="2313.97,3474.60 2318.32,3475.10"/>
    </edge>
    <edge id=":1010179872_5" function="internal">
        <lane id=":1010179872_5_0" index="0" disallow="tram rail_urban rail rail_electric rail_fast ship" speed="3.68" length="2.59" shape="2313.97,3474.60 2315.45,3474.63 2316.25,3474.19 2316.27,3473.98"/>
    </edge>
    <edge id=":1010179872_10" function="internal">
        <lane id=":1010179872_10_0" index="0" disallow="tram rail_urban rail rail_electric rail_fast ship" speed="6.59" length="11.82" shape="2318.32,3475.10 2321.62,3473.22 2323.11,3469.79 2321.98,3465.66"/>
    </edge>
    <edge id=":1010179872_11" function="internal">
        <lane id=":1010179872_11_0" index="0" disallow="tram rail_urban rail rail_electric rail_fast ship" speed="3.68" length="2.18" shape="2316.27,3473.98 2316.37,3473.28 2315.83,3471.91"/>
    </edge>
    <edge id=":1010179872_6" function="internal">
        <lane id=":1010179872_6_0" index="0" disallow="tram rail_urban rail rail_electric rail_fast ship" speed="5.54" length="10.92" shape="2319.51,3467.74 2321.18,3470.97 2321.13,3472.74 2319.34,3473.06 2315.83,3471.91"/>
    </edge>
    <edge id=":1010179872_7" function="internal">
        <lane id=":1010179872_7_0" index="0" disallow="tram rail_urban rail rail_electric rail_fast ship" speed="22.22" length="30.49" shape="2319.51,3467.74 2323.23,3472.70 2329.15,3479.68 2335.41,3486.24 2340.20,3489.96"/>
    </edge>
    <edge id=":1010179872_8" function="internal">