<?xml version="1.0" encoding="UTF-8"?>

<!-- generated on Mon Nov 23 19:19:42 2020 by Eclipse SUMO duarouter Version 1.7.0
<configuration xmlns:xsi="http://www.w3.org/2001/XMLSchema-instance" xsi:noNamespaceSchemaLocation="http://sumo.dlr.de/xsd/duarouterConfiguration.xsd">

    <input>
        <net-file value="/home/manas/Sumo/2020-11-23-19-19-37/osm.net.xml"/>
        <route-files value="/home/manas/Sumo/2020-11-23-19-19-37/osm.passenger.trips.xml"/>
    </input>

    <output>
        <output-file value="/home/manas/Sumo/2020-11-23-19-19-37/osm.passenger.trips.xml.tmp"/>
        <write-trips value="true"/>
    </output>

    <time>
        <begin value="0"/>
        <end value="3600"/>
    </time>

    <report>
        <no-warnings value="true"/>
        <ignore-errors value="true"/>
        <no-step-log value="true"/>
    </report>

</configuration>
-->

<routes xmlns:xsi="http://www.w3.org/2001/XMLSchema-instance" xsi:noNamespaceSchemaLocation="http://sumo.dlr.de/xsd/routes_file.xsd">
    <vType id="veh_passenger" vClass="passenger"/>
    <trip id="veh0" type="veh_passenger" depart="0.00" departLane="best" from="-369835579" to="-369673298"/>
    <trip id="veh1" type="veh_passenger" depart="4.24" departLane="best" from="369673303" to="369529057"/>
    <trip id="veh2" type="veh_passenger" depart="8.48" departLane="best" from="369855656#2" to="-191953150#8"/>
    <trip id="veh3" type="veh_passenger" depart="12.72" departLane="best" from="-369673290" to="191953049#3"/>
    <trip id="veh4" type="veh_passenger" depart="16.96" departLane="best" from="-191953049#5" to="-369665643"/>
    <trip id="veh5" type="veh_passenger" depart="21.20" departLane="best" from="-369673291" to="191953178#6"/>
    <trip id="veh6" type="veh_passenger" depart="25.44" departLane="best" from="369835605" to="-191953031#12"/>
    <trip id="veh7" type="veh_passenger" depart="29.68" departLane="best" from="369835601" to="369665627#3"/>
    <trip id="veh8" type="veh_passenger" depart="33.93" departLane="best" from="-369835640#0" to="-369518895#0"/>
    <trip id="veh9" type="veh_passenger" depart="38.17" departLane="best" from="369835636#1" to="191953198"/>
    <trip id="veh10" type="veh_passenger" depart="42.41" departLane="best" from="369835602" to="369673282"/>
    <trip id="veh11" type="veh_passenger" depart="46.65" departLane="best" from="-369855656#4" to="191953150#11"/>
    <trip id="veh12" type="veh_passenger" depart="50.89" departLane="best" from="369835625#0" to="362209630#0"/>
    <trip id="veh13" type="veh_passenger" depart="55.13" departLane="best" from="369835641#1" to="191953150#8"/>
    <trip id="veh14" type="veh_passenger" depart="59.37" departLane="best" from="369665646#1" to="-191953121"/>
    <trip id="veh15" type="veh_passenger" depart="63.61" departLane="best" from="-369673302#2" to="-369835597#0"/>
    <trip id="veh16" type="veh_passenger" depart="67.85" departLane="best" from="-191953150#28" to="-369673306#0"/>
    <trip id="veh17" type="veh_passenger" depart="72.09" departLane="best" from="-191953191#3" to="-369835580"/>
    <trip id="veh18" type="veh_passenger" depart="76.33" departLane="best" from="369518872" to="-369835646#2"/>
    <trip id="veh19" type="veh_passenger" depart="80.57" departLane="best" from="-369855654#1" to="-369665653#0"/>
    <trip id="veh20" type="veh_passenger" depart="84.81" departLane="best" from="369518890#3" to="191953198"/>
    <trip id="veh21" type="veh_passenger" depart="89.05" departLane="best" from="-369665623#7" to="369673282"/>
    <trip id="veh22" type="veh_passenger" depart="93.29" departLane="best" from="-369529057" to="-369855656#4"/>
    <trip id="veh23" type="veh_passenger" depart="97.53" departLane="best" from="370134726#0" to="369518870#0"/>
    <trip id="veh24" type="veh_passenger" depart="101.78" departLane="best" from="191953150#14" to="369665623#7"/>
    <trip id="veh25" type="veh_passenger" depart="106.02" departLane="best" from="369835631" to="369835571#0"/>
    <trip id="veh26" type="veh_passenger" depart="110.26" departLane="best" from="-369673303" to="-191953082#0"/>
    <trip id="veh27" type="veh_passenger" depart="114.50" departLane="best" from="-369673282" to="369999835#1"/>
    <trip id="veh28" type="veh_passenger" depart="118.74" departLane="best" from="369518894#2" to="-369855690#1"/>
    <trip id="veh29" type="veh_passenger" depart="122.98" departLane="best" from="369855690#3" to="-370006687#4"/>
    <trip id="veh30" type="veh_passenger" depart="127.22" departLane="best" from="191953150#17" to="-369835574#1"/>
    <trip id="veh31" type="veh_passenger" depart="131.46" departLane="best" from="191953178#1" to="369835646#4"/>
    <trip id="veh32" type="veh_passenger" depart="135.70" departLane="best" from="704625031#1" to="191953049#8"/>
    <trip id="veh33" type="veh_passenger" depart="139.94" departLane="best" from="-362209630#0" to="369507191#1"/>
    <trip id="veh34" type="veh_passenger" depart="144.18" departLane="best" from="369835585#1" to="-369999849#0"/>
    <trip id="veh35" type="veh_passenger" depart="148.42" departLane="best" from="-191953150#13" to="-369855661"/>
    <trip id="veh36" type="veh_passenger" depart="152.66" departLane="best" from="704625031#0" to="191953094"/>
    <trip id="veh37" type="veh_passenger" depart="156.90" departLane="best" from="369665627#12" to="191953121"/>
    <trip id="veh38" type="veh_passenger" depart="161.14" departLane="best" from="-369835576#3" to="369518870#0"/>
    <trip id="veh39" type="veh_passenger" depart="165.39" departLane="best" from="-369507183" to="-369999890#3"/>
    <trip id="veh40" type="veh_passenger" depart="169.63" departLane="best" from="-370006687#2" to="369999890#1"/>
    <trip id="veh41" type="veh_passenger" depart="173.87" departLane="best" from="191953031#3" to="-369665627#11"/>
    <trip id="veh42" type="veh_passenger" depart="178.11" departLane="best" from="369855690#1" to="369835640#0"/>
    <trip id="veh43" type="veh_passenger" depart="182.35" departLane="best" from="-369835613#0" to="369518869"/>
    <trip id="veh44" type="veh_passenger" depart="186.59" departLane="best" from="369507184" to="-369518894#1"/>
    <trip id="veh45" type="veh_passenger" depart="190.83" departLane="best" from="369835571#0" to="191953137#1"/>
    <trip id="veh46" type="veh_passenger" depart="195.07" departLane="best" from="369835576#5" to="191953094"/>
    <trip id="veh47" type="veh_passenger" depart="199.31" departLane="best" from="-191953031#0" to="-369835628#0"/>
    <trip id="veh48" type="veh_passenger" depart="203.55" departLane="best" from="-191953036#2" to="369855691#0"/>
    <trip id="veh49" type="veh_passenger" depart="207.79" departLane="best" from="-369835613#7" to="-191953150#1"/>
    <trip id="veh50" type="veh_passenger" depart="212.03" departLane="best" from="-191953150#7" to="191953031#12"/>
    <trip id="veh51" type="veh_passenger" depart="216.27" departLane="best" from="369835573#0" to="-369518870#1"/>
    <trip id="veh52" type="veh_passenger" depart="220.51" departLane="best" from="-369999857#0" to="-369673282"/>
    <trip id="veh54" type="veh_passenger" depart="228.99" departLane="best" from="370135671" to="369518873"/>
    <trip id="veh55" type="veh_passenger" depart="233.24" departLane="best" from="-369999895#0" to="191953094"/>
    <trip id="veh56" type="veh_passenger" depart="237.48" departLane="best" from="-369835636#5" to="191953178#4"/>
    <trip id="veh57" type="veh_passenger" depart="241.72" departLane="best" from="-191953150#19" to="369507194#0"/>
    <trip id="veh58" type="veh_passenger" depart="245.96" departLane="best" from="-369676971#0" to="369518894#2"/>
    <trip id="veh59" type="veh_passenger" depart="250.20" departLane="best" from="-369673288" to="-369518871#2"/>
    <trip id="veh60" type="veh_passenger" depart="254.44" departLane="best" from="369999771#2" to="191953150#28"/>
    <trip id="veh61" type="veh_passenger" depart="258.68" departLane="best" from="369835603" to="-369665628#0"/>
    <trip id="veh62" type="veh_passenger" depart="262.92" departLane="best" from="-191953178#4" to="-369999873#1"/>
    <trip id="veh63" type="veh_passenger" depart="267.16" departLane="best" from="-369999857#0" to="-370006762#1"/>
    <trip id="veh64" type="veh_passenger" depart="271.40" departLane="best" from="369673298" to="369518896#1"/>
    <trip id="veh65" type="veh_passenger" depart="275.64" departLane="best" from="370006763" to="-191953191#0"/>
    <trip id="veh66" type="veh_passenger" depart="279.88" departLane="best" from="-369999771#3" to="-369835636#5"/>
    <trip id="veh67" type="veh_passenger" depart="284.12" departLane="best" from="369835641#1" to="-369835568#6"/>
    <trip id="veh68" type="veh_passenger" depart="288.36" departLane="best" from="-369665628#1" to="-369999902#1"/>
    <trip id="veh69" type="veh_passenger" depart="292.60" departLane="best" from="-369999849#1" to="-369835585#0"/>
    <trip id="veh70" type="veh_passenger" depart="296.85" departLane="best" from="-369835570#2" to="369855687#2"/>
    <trip id="veh71" type="veh_passenger" depart="301.09" departLane="best" from="704625221" to="369835618"/>
    <trip id="veh72" type="veh_passenger" depart="305.33" departLane="best" from="369999902#1" to="369855690#1"/>
    <trip id="veh73" type="veh_passenger" depart="309.57" departLane="best" departSpeed="max" from="191943558" to="-369673284"/>
    <trip id="veh74" type="veh_passenger" depart="313.81" departLane="best" from="-369999771#2" to="-191953150#10"/>
    <trip id="veh75" type="veh_passenger" depart="318.05" departLane="best" from="369999891#0" to="370135671"/>
    <trip id="veh76" type="veh_passenger" depart="322.29" departLane="best" from="191953150#13" to="369665646#2"/>
    <trip id="veh77" type="veh_passenger" depart="326.53" departLane="best" from="-369518895#0" to="-369835605"/>
    <trip id="veh78" type="veh_passenger" depart="330.77" departLane="best" from="369999902#1" to="191953150#9"/>
    <trip id="veh79" type="veh_passenger" depart="335.01" departLane="best" from="191953137#2" to="369673302#2"/>
    <trip id="veh80" type="veh_passenger" depart="339.25" departLane="best" from="191953031#5" to="369835628#1"/>
    <trip id="veh81" type="veh_passenger" depart="343.49" departLane="best" from="-369518896#0" to="369999895#1"/>
    <trip id="veh82" type="veh_passenger" depart="347.73" departLane="best" from="-191953150#28" to="-369665627#6"/>
    <trip id="veh83" type="veh_passenger" depart="351.97" departLane="best" from="191953196#0" to="369518898"/>
    <trip id="veh84" type="veh_passenger" depart="356.21" departLane="best" from="-369673307#0" to="-369507194#1"/>
    <trip id="veh85" type="veh_passenger" depart="360.45" departLane="best" from="191953191#4" to="362209630#1"/>
    <trip id="veh86" type="veh_passenger" depart="364.70" departLane="best" from="-369999848" to="191953178#1"/>
    <trip id="veh87" type="veh_passenger" depart="368.94" departLane="best" from="191953049#8" to="369999771#2"/>
    <trip id="veh88" type="veh_passenger" depart="373.18" departLane="best" from="-369676971#1" to="-369855690#1"/>
    <trip id="veh89" type="veh_passenger" depart="377.42" departLane="best" from="-369835623" to="369673305#0"/>
    <trip id="veh90" type="veh_passenger" depart="381.66" departLane="best" from="-191953150#21" to="-370006687#4"/>
    <trip id="veh91" type="veh_passenger" depart="385.90" departLane="best" from="-369855654#1" to="-369518896#0"/>
    <trip id="veh92" type="veh_passenger" depart="390.14" departLane="best" from="369835626#0" to="369665627#9"/>
    <trip id="veh93" type="veh_passenger" depart="394.38" departLane="best" from="369507189#1" to="370134725"/>
    <trip id="veh94" type="veh_passenger" depart="398.62" departLane="best" from="369518894#1" to="-191953031#3"/>
    <trip id="veh95" type="veh_passenger" depart="402.86" departLane="best" from="369529057" to="369999828"/>
    <trip id="veh96" type="veh_passenger" depart="407.10" departLane="best" from="-369835578#0" to="191953198"/>
    <trip id="veh97" type="veh_passenger" depart="411.34" departLane="best" from="369673284" to="-369665646#2"/>
    <trip id="veh98" type="veh_passenger" depart="415.58" departLane="best" from="369518871#3" to="-369835574#2"/>
    <trip id="veh99" type="veh_passenger" depart="419.82" departLane="best" departSpeed="max" from="191943558" to="369855656#1"/>
    <trip id="veh100" type="veh_passenger" depart="424.06" departLane="best" from="369835636#0" to="-191953178#1"/>
    <trip id="veh101" type="veh_passenger" depart="428.30" departLane="best" from="-369999857#0" to="-369835579"/>
    <trip id="veh102" type="veh_passenger" depart="432.55" departLane="best" from="-191953031#10" to="369835570#0"/>
    <trip id="veh103" type="veh_passenger" depart="436.79" departLane="best" from="369518873" to="-369835574#1"/>
    <trip id="veh104" type="veh_passenger" depart="441.03" departLane="best" from="369673306#0" to="191953150#11"/>
    <trip id="veh105" type="veh_passenger" depart="445.27" departLane="best" from="-369999873#0" to="-191953031#4"/>
    <trip id="veh106" type="veh_passenger" depart="449.51" departLane="best" from="369855681" to="191953149"/>
    <trip id="veh107" type="veh_passenger" depart="453.75" departLane="best" from="369835626#0" to="191953178#0"/>
    <trip id="veh108" type="veh_passenger" depart="457.99" departLane="best" from="-369835570#0" to="-191953191#4"/>
    <trip id="veh109" type="veh_passenger" depart="462.23" departLane="best" from="-369999779" to="369507183"/>
    <trip id="veh110" type="veh_passenger" depart="466.47" departLane="best" from="-369518895#0" to="369855691#0"/>
    <trip id="veh111" type="veh_passenger" depart="470.71" departLane="best" from="369835641#4" to="370006687#2"/>
    <trip id="veh112" type="veh_passenger" depart="474.95" departLane="best" from="-191953049#2" to="369673290"/>
    <trip id="veh113" type="veh_passenger" depart="479.19" departLane="best" from="-369673298" to="369835600"/>
    <trip id="veh114" type="veh_passenger" depart="483.43" departLane="best" from="369835591" to="-369673302#1"/>
    <trip id="veh115" type="veh_passenger" depart="487.67" departLane="best" from="-191953049#2" to="-369665632#0"/>
    <trip id="veh116" type="veh_passenger" depart="491.91" departLane="best" from="369518883" to="-369999771#0"/>
    <trip id="veh117" type="veh_passenger" depart="496.16" departLane="best" from="370006734" to="191953120"/>
    <trip id="veh118" type="veh_passenger" depart="500.40" departLane="best" from="369999904#0" to="-369665627#11"/>
    <trip id="veh119" type="veh_passenger" depart="504.64" departLane="best" from="369999896" to="-369835576#0"/>
    <trip id="veh120" type="veh_passenger" depart="508.88" departLane="best" from="369673298" to="-369835620"/>
    <trip id="veh121" type="veh_passenger" depart="513.12" departLane="best" from="362209630#1" to="191953049#9"/>
    <trip id="veh122" type="veh_passenger" depart="517.36" departLane="best" from="-369855681" to="191953150#7"/>
    <trip id="veh123" type="veh_passenger" depart="521.60" departLane="best" from="-369835571#1" to="369665632#2"/>
    <trip id="veh124" type="veh_passenger" depart="525.84" departLane="best" from="-191953031#1" to="369855689"/>
    <trip id="veh125" type="veh_passenger" depart="530.08" departLane="best" from="191953121" to="369665646#3"/>
    <trip id="veh126" type="veh_passenger" depart="534.32" departLane="best" from="369673306#0" to="369518895#1"/>
    <trip id="veh127" type="veh_passenger" depart="538.56" departLane="best" from="-369835646#2" to="-191953150#18"/>
    <trip id="veh128" type="veh_passenger" depart="542.80" departLane="best" from="369529057" to="-369835635"/>
    <trip id="veh129" type="veh_passenger" depart="547.04" departLane="best" from="-369835621" to="369835626#0"/>
    <trip id="veh130" type="veh_passenger" depart="551.28" departLane="best" from="369673288" to="-369835613#0"/>
    <trip id="veh132" type="veh_passenger" depart="559.76" departLane="best" from="-369999771#3" to="-369835603"/>
    <trip id="veh133" type="veh_passenger" depart="564.01" departLane="best" from="-369518870#0" to="-369999848"/>
    <trip id="veh134" type="veh_passenger" depart="568.25" departLane="best" from="369999835#0" to="369529057"/>
    <trip id="veh135" type="veh_passenger" depart="572.49" departLane="best" from="369855669#1" to="362209624#0"/>
    <trip id="veh136" type="veh_passenger" depart="576.73" departLane="best" from="-369835613#1" to="191953150#0"/>
    <trip id="veh137" type="veh_passenger" depart="580.97" departLane="best" from="-191953031#0" to="-369835592#2"/>
    <trip id="veh138" type="veh_passenger" depart="585.21" departLane="best" from="-369999873#1" to="191953155"/>
    <trip id="veh139" type="veh_passenger" depart="589.45" departLane="best" from="369518894#2" to="-370006762#0"/>
    <trip id="veh140" type="veh_passenger" depart="593.69" departLane="best" from="-369999900#1" to="-369673284"/>
    <trip id="veh141" type="veh_passenger" depart="597.93" departLane="best" from="-370135671" to="369855654#1"/>
    <trip id="veh142" type="veh_passenger" depart="602.17" departLane="best" from="369518871#2" to="-369835636#3"/>
    <trip id="veh143" type="veh_passenger" depart="606.41" departLane="best" from="369835613#6" to="369673305#0"/>
    <trip id="veh144" type="veh_passenger" depart="610.65" departLane="best" from="369665623#8" to="-369673301"/>
    <trip id="veh145" type="veh_passenger" depart="614.89" departLane="best" from="-369665645" to="-191953049#2"/>
    <trip id="veh146" type="veh_passenger" depart="619.13" departLane="best" from="-369835568#3" to="-370135671"/>
    <trip id="veh147" type="veh_passenger" depart="623.37" departLane="best" from="-369999818" to="369507193"/>
    <trip id="veh148" type="veh_passenger" depart="627.62" departLane="best" from="191953031#1" to="-369835568#2"/>
    <trip id="veh149" type="veh_passenger" depart="631.86" departLane="best" from="-362206532#0" to="-369999857#0"/>
    <trip id="veh150" type="veh_passenger" depart="636.10" departLane="best" from="-369665627#0" to="369999891#0"/>
    <trip id="veh151" type="veh_passenger" depart="640.34" departLane="best" from="-370006687#4" to="369835580"/>
    <trip id="veh152" type="veh_passenger" depart="644.58" departLane="best" from="369665623#3" to="370134725"/>
    <trip id="veh153" type="veh_passenger" depart="648.82" departLane="best" from="369855656#1" to="362206532#0"/>
    <trip id="veh154" type="veh_passenger" depart="653.06" departLane="best" from="369673288" to="191953049#2"/>
    <trip id="veh155" type="veh_passenger" depart="657.30" departLane="best" from="369835625#0" to="191953150#0"/>
    <trip id="veh156" type="veh_passenger" depart="661.54" departLane="best" from="369855656#5" to="369673301"/>
    <trip id="veh157" type="veh_passenger" depart="665.78" departLane="best" from="-704625031#0" to="-369835573#2"/>
    <trip id="veh158" type="veh_passenger" depart="670.02" departLane="best" from="-369835568#6" to="369518866"/>
    <trip id="veh159" type="veh_passenger" depart="674.26" departLane="best" from="369835573#0" to="191953094"/>
    <trip id="veh160" type="veh_passenger" depart="678.50" departLane="best" from="369518869" to="-369835578#1"/>
    <trip id="veh161" type="veh_passenger" depart="682.74" departLane="best" from="-191953150#25" to="-369835592#1"/>
    <trip id="veh162" type="veh_passenger" depart="686.98" departLane="best" from="369665646#3" to="-191953150#14"/>
    <trip id="veh163" type="veh_passenger" depart="691.22" departLane="best" from="-369999828" to="-369665651#0"/>
    <trip id="veh164" type="veh_passenger" depart="695.47" departLane="best" from="-369999848" to="369855656#1"/>
    <trip id="veh165" type="veh_passenger" depart="699.71" departLane="best" from="191953178#1" to="369665627#2"/>
    <trip id="veh166" type="veh_passenger" depart="703.95" departLane="best" from="-369855661" to="-191953031#12"/>
    <trip id="veh167" type="veh_passenger" depart="708.19" departLane="best" from="-369835643#2" to="369673305#1"/>
    <trip id="veh168" type="veh_passenger" depart="712.43" departLane="best" from="369835636#5" to="369999890#1"/>
    <trip id="veh169" type="veh_passenger" depart="716.67" departLane="best" from="-369999848" to="369673302#2"/>
    <trip id="veh170" type="veh_passenger" depart="720.91" departLane="best" from="191953143#2" to="191953198"/>
    <trip id="veh171" type="veh_passenger" depart="725.15" departLane="best" from="-369673294" to="-369673290"/>
    <trip id="veh172" type="veh_passenger" depart="729.39" departLane="best" from="-369999891#0" to="-191953049#6"/>
    <trip id="veh173" type="veh_passenger" depart="733.63" departLane="best" from="-369999777" to="-369665623#0"/>
    <trip id="veh174" type="veh_passenger" depart="737.87" departLane="best" from="-370006845#0" to="-369518870#0"/>
    <trip id="veh175" type="veh_passenger" depart="742.11" departLane="best" from="-369855690#1" to="191953150#21"/>
    <trip id="veh176" type="veh_passenger" depart="746.35" departLane="best" from="-369518873" to="-370006728"/>
    <trip id="veh177" type="veh_passenger" depart="750.59" departLane="best" from="-191953137#3" to="-369855656#4"/>
    <trip id="veh178" type="veh_passenger" depart="754.83" departLane="best" from="-369673282" to="-369835628#2"/>
    <trip id="veh179" type="veh_passenger" depart="759.08" departLane="best" from="-369835570#3" to="-191953150#3"/>
    <trip id="veh180" type="veh_passenger" depart="763.32" departLane="best" from="-191953036#1" to="191953137#1"/>
    <trip id="veh181" type="veh_passenger" depart="767.56" departLane="best" from="704625221" to="-369835641#5"/>
    <trip id="veh182" type="veh_passenger" depart="771.80" departLane="best" from="369518890#4" to="369835573#2"/>
    <trip id="veh183" type="veh_passenger" depart="776.04" departLane="best" from="369518892" to="369673306#0"/>
    <trip id="veh184" type="veh_passenger" depart="780.28" departLane="best" from="369999873#1" to="-369665645"/>
    <trip id="veh185" type="veh_passenger" depart="784.52" departLane="best" from="-191953036#2" to="-369518894#1"/>
    <trip id="veh186" type="veh_passenger" depart="788.76" departLane="best" from="369665643" to="369835568#3"/>
    <trip id="veh187" type="veh_passenger" depart="793.00" departLane="best" from="-369665623#3" to="191953198"/>
    <trip id="veh188" type="veh_passenger" depart="797.24" departLane="best" from="369676971#1" to="-369507189#0"/>
    <trip id="veh189" type="veh_passenger" depart="801.48" departLane="best" from="369835613#6" to="369999900#2"/>
    <trip id="veh190" type="veh_passenger" depart="805.72" departLane="best" from="-362209624#0" to="-191953049#3"/>
    <trip id="veh192" type="veh_passenger" depart="814.20" departLane="best" from="369673280" to="-191953150#23"/>
    <trip id="veh193" type="veh_passenger" depart="818.44" departLane="best" from="369665627#9" to="369507191#0"/>
    <trip id="veh194" type="veh_passenger" depart="822.68" departLane="best" from="-191953191#4" to="369835570#2"/>
    <trip id="veh195" type="veh_passenger" depart="826.93" departLane="best" from="369835636#3" to="191953198"/>
    <trip id="veh196" type="veh_passenger" depart="831.17" departLane="best" from="-369507195#0" to="370006763"/>
    <trip id="veh197" type="veh_passenger" depart="835.41" departLane="best" from="-369999873#0" to="-369855654#1"/>
    <trip id="veh198" type="veh_passenger" depart="839.65" departLane="best" from="191953031#7" to="-369835640#0"/>
    <trip id="veh199" type="veh_passenger" depart="843.89" departLane="best" from="369518872" to="369835613#2"/>
    <trip id="veh200" type="veh_passenger" depart="848.13" departLane="best" from="369665646#3" to="-369999890#4"/>
    <trip id="veh201" type="veh_passenger" depart="852.37" departLane="best" from="369673302#2" to="369999900#4"/>
    <trip id="veh202" type="veh_passenger" depart="856.61" departLane="best" from="191953121" to="191953031#10"/>
    <trip id="veh203" type="veh_passenger" depart="860.85" departLane="best" from="-369835576#5" to="369835628#0"/>
    <trip id="veh204" type="veh_passenger" depart="865.09" departLane="best" from="369835625#0" to="-191953150#8"/>
    <trip id="veh205" type="veh_passenger" depart="869.33" departLane="best" from="-370006762#1" to="191953198"/>
    <trip id="veh206" type="veh_passenger" depart="873.57" departLane="best" from="-369855656#5" to="-191953049#6"/>
    <trip id="veh207" type="veh_passenger" depart="877.81" departLane="best" from="369835636#3" to="-369665627#2"/>
    <trip id="veh208" type="veh_passenger" depart="882.05" departLane="best" from="-369673282" to="369835578#1"/>
    <trip id="veh209" type="veh_passenger" depart="886.29" departLane="best" from="369665645" to="-369835579"/>
    <trip id="veh210" type="veh_passenger" depart="890.54" departLane="best" from="-191953031#5" to="369999873#0"/>
    <trip id="veh211" type="veh_passenger" depart="894.78" departLane="best" from="-191953150#7" to="369665646#3"/>
    <trip id="veh212" type="veh_passenger" depart="899.02" departLane="best" departSpeed="max" from="191943558" to="369673307#1"/>
    <trip id="veh213" type="veh_passenger" depart="903.26" departLane="best" from="369665627#9" to="369518871#2"/>
    <trip id="veh214" type="veh_passenger" depart="907.50" departLane="best" departSpeed="max" from="191943558" to="369835577#0"/>
    <trip id="veh215" type="veh_passenger" depart="911.74" departLane="best" from="369665628#0" to="-369835613#6"/>
    <trip id="veh216" type="veh_passenger" depart="915.98" departLane="best" from="191953155" to="-370134726#3"/>
    <trip id="veh217" type="veh_passenger" depart="920.22" departLane="best" from="369673307#1" to="-369835635"/>
    <trip id="veh218" type="veh_passenger" depart="924.46" departLane="best" from="369665646#0" to="-369835577#0"/>
    <trip id="veh219" type="veh_passenger" depart="928.70" departLane="best" from="-369835570#3" to="-369507194#1"/>
    <trip id="veh220" type="veh_passenger" depart="932.94" departLane="best" from="-369665632#0" to="-369507194#0"/>
    <trip id="veh221" type="veh_passenger" depart="937.18" departLane="best" from="191953103#1" to="369835568#0"/>
    <trip id="veh222" type="veh_passenger" depart="941.42" departLane="best" departSpeed="max" from="191943558" to="369665653#0"/>
    <trip id="veh223" type="veh_passenger" depart="945.66" departLane="best" from="370006687#3" to="191953094"/>
    <trip id="veh224" type="veh_passenger" depart="949.90" departLane="best" from="-369835592#0" to="-191953191#3"/>
    <trip id="veh225" type="veh_passenger" depart="954.14" departLane="best" from="191953096#1" to="-369835578#1"/>
    <trip id="veh226" type="veh_passenger" depart="958.39" departLane="best" from="369665637" to="-369518869"/>
    <trip id="veh227" type="veh_passenger" depart="962.63" departLane="best" from="369835643#2" to="191953031#5"/>
    <trip id="veh228" type="veh_passenger" depart="966.87" departLane="best" from="369835645#0" to="191953150#4"/>
    <trip id="veh229" type="veh_passenger" depart="971.11" departLane="best" from="-370134726#0" to="-369999895#1"/>
    <trip id="veh230" type="veh_passenger" depart="975.35" departLane="best" from="-369665627#5" to="-191953137#3"/>
    <trip id="veh231" type="veh_passenger" depart="979.59" departLane="best" from="369999835#0" to="-704625031#1"/>
    <trip id="veh232" type="veh_passenger" depart="983.83" departLane="best" from="-191953150#22" to="369507193"/>
    <trip id="veh233" type="veh_passenger" depart="988.07" departLane="best" from="370134726#4" to="-369507194#0"/>
    <trip id="veh234" type="veh_passenger" depart="992.31" departLane="best" from="369835571#2" to="191953198"/>
    <trip id="veh235" type="veh_passenger" depart="996.55" departLane="best" from="369835585#0" to="-369673302#0"/>
    <trip id="veh236" type="veh_passenger" depart="1000.79" departLane="best" from="191953049#8" to="-369999904#0"/>
    <trip id="veh237" type="veh_passenger" depart="1005.03" departLane="best" from="370134726#0" to="-369835613#5"/>
    <trip id="veh238" type="veh_passenger" depart="1009.27" departLane="best" from="369507195#0" to="191953198"/>
    <trip id="veh239" type="veh_passenger" depart="1013.51" departLane="best" from="369673305#1" to="369999873#0"/>
    <trip id="veh240" type="veh_passenger" depart="1017.75" departLane="best" from="-191953031#1" to="-369999904#0"/>
    <trip id="veh241" type="veh_passenger" depart="1022.00" departLane="best" from="191953191#4" to="-369835600"/>
    <trip id="veh242" type="veh_passenger" depart="1026.24" departLane="best" from="-369673305#0" to="369665632#0"/>
    <trip id="veh243" type="veh_passenger" depart="1030.48" departLane="best" from="369665646#0" to="-370006687#1"/>
    <trip id="veh244" type="veh_passenger" depart="1034.72" departLane="best" from="369665627#6" to="369855687#3"/>
    <trip id="veh245" type="veh_passenger" depart="1038.96" departLane="best" from="369835580" to="369507189#1"/>
    <trip id="veh246" type="veh_passenger" depart="1043.20" departLane="best" from="369518896#1" to="369999771#1"/>
    <trip id="veh247" type="veh_passenger" depart="1047.44" departLane="best" from="-369999857#1" to="191953143#2"/>
    <trip id="veh248" type="veh_passenger" depart="1051.68" departLane="best" from="369518890#2" to="369855656#4"/>
    <trip id="veh249" type="veh_passenger" depart="1055.92" departLane="best" from="369835621" to="-191953150#19"/>
    <trip id="veh250" type="veh_passenger" depart="1060.16" departLane="best" from="369676971#1" to="191953150#26"/>
    <trip id="veh251" type="veh_passenger" depart="1064.40" departLane="best" from="-369835597#0" to="-369518866"/>
    <trip id="veh252" type="veh_passenger" depart="1068.64" departLane="best" from="369999835#1" to="191953036#2"/>
    <trip id="veh253" type="veh_passenger" depart="1072.88" departLane="best" from="191953031#1" to="-191953150#28"/>