<?xml version="1.0" encoding="UTF-8"?>

<!-- generated on Mon Nov 23 19:19:41 2020 by Eclipse SUMO polyconvert Version 1.7.0
<configuration xmlns:xsi="http://www.w3.org/2001/XMLSchema-instance" xsi:noNamespaceSchemaLocation="http://sumo.dlr.de/xsd/polyconvertConfiguration.xsd">

    <input>
        <net-file value="osm.net.xml"/>
        <osm-files value="osm_bbox.osm.xml"/>
        <osm.keep-full-type value="true"/>
        <type-file value="/usr/share/sumo/data/typemap/osmPolyconvert.typ.xml"/>
    </input>

    <output>
        <output-file value="osm.poly.xml"/>
    </output>

    <processing>
        <poi-layer-offset value="5"/>
    </processing>

    <report>
        <verbose value="true"/>
    </report>

</configuration>
-->

<additional xmlns:xsi="http://www.w3.org/2001/XMLSchema-instance" xsi:noNamespaceSchemaLocation="http://sumo.dlr.de/xsd/additional_file.xsd">
    <location netOffset="-585710.46,-2512655.00" convBoundary="0.00,-8878.87,5593.58,8982.10" origBoundary="75.834630,22.638508,75.888558,22.800069" projParameter="+proj=utm +zone=43 +ellps=WGS84 +datum=WGS84 +units=m +no_defs"/>

    <poly id="192141206" type="waterway.stream" color="181,209,209" fill="0" layer="-4.00" shape="597.053819,331.134578 627.594288,329.835245 638.726284,342.662961 622.932972,380.335875 617.568104,411.823986 620.633195,449.061332 632.922996,498.584190 649.182482,521.770032 680.731295,538.178724 701.638387,545.880819 736.153093,555.409357 782.546684,567.352439 807.980016,562.880377 823.655295,544.226583 848.400943,518.007647 899.503273,507.393429 917.712864,501.828744 927.608930,497.157805 935.764132,493.406915 941.159693,492.740151 945.375561,491.834190 958.754017,487.017023 968.366776,485.211833 973.288612,484.774871 978.669938,484.805499 983.820038,485.764759 988.727255,487.896143 1004.320288,503.583662 1013.390095,515.968169 1016.407354,519.948694 1019.419317,524.859137 1027.319680,537.004507 1029.159570,542.140764 1030.070214,546.341782 1029.532547,559.601534 1030.203016,564.498644 1031.582090,569.399791 1031.503845,583.138203 1028.753788,613.390099 1025.663605,622.218067 1024.925810,627.339644 1025.373057,631.759439 1026.756098,635.963148 1029.303252,641.335921 1037.644749,655.354778 1040.194607,660.251524 1043.226073,663.534677 1051.828971,673.126713 1056.025865,677.346456 1060.686275,681.325283 1071.858803,692.337964 1077.662051,701.216603 1081.158343,704.026369 1086.300413,706.380543 1095.194783,708.069715 1122.811945,709.622077 1132.659462,708.050820 1138.758654,706.447123 1143.445552,705.776391 1148.597232,704.643338 1154.231582,703.513040 1164.062207,703.104142 1169.221507,702.436113 1175.550212,702.007244 1186.082806,702.764799 1198.940940,706.325474 1203.367696,709.849110 1218.300496,718.779911 1221.570829,721.588421 1226.006865,723.484710 1239.719336,728.500573 1246.823393,732.570908 1255.707085,734.326539 1260.565492,735.992763 1276.309893,739.470352 1284.525348,744.941975 1288.041588,749.645012 1290.233902,755.990037 1285.644377,770.178734 1281.030716,784.998329 1279.182558,792.117371 1278.443558,802.829690 1285.286304,809.489121 1294.826861,814.901897 1303.818931,819.248747 1314.581144,822.941469 1324.315878,824.923423 1332.522563,828.324784 1344.403965,833.850609 1351.966702,836.716900 1356.346231,841.303112 1360.002258,844.899887 1363.108431,849.467749 1366.285286,854.246363 1367.897825,859.602784 1369.672291,876.152721 1368.665920,888.712335 1361.807239,901.017069 1358.976070,904.034283 1347.415939,919.566961 1344.574207,924.432942 1341.746670,928.612614 1337.037175,933.246503 1327.604967,944.828009 1326.175406,948.783188 1328.931052,957.179541 1338.925464,971.208034 1347.052587,983.122404 1352.863536,990.606283 1356.598501,992.963579 1360.555467,996.008536 1363.113139,999.510467 1365.431891,1003.487076 1371.951409,1010.975015 1379.866222,1018.703424 1385.432967,1027.580842 1387.286929,1032.019772 1388.196174,1036.442227 1390.659225,1056.483415 1390.826141,1068.595839 1391.750011,1070.461020 1393.128917,1075.362207 1394.736471,1079.788658 1397.500991,1088.417565 1399.346003,1092.623958 1409.603118,1101.993196 1417.056118,1107.859088 1424.992143,1111.867852 1429.674567,1113.754545 1437.837465,1119.392024 1441.090748,1123.362926 1442.700880,1127.335493 1442.447012,1132.216270 1441.252299,1136.405270 1437.693571,1144.533021 1432.251580,1153.347456 1426.322137,1166.587429 1417.132841,1177.007834 1415.464422,1181.426613 1412.364801,1191.881868 1411.868408,1196.074866 1413.924319,1204.699724 1417.187794,1208.681751 1420.909829,1211.492895 1430.483551,1216.440985 1434.931080,1218.093850 1443.577389,1220.003237 1448.021301,1220.493649 1463.258542,1219.185957 1477.557675,1216.710473 1493.645882,1210.270825 1500.040251,1210.894203 1514.117335,1211.329106 1519.279597,1208.325275 1522.114677,1204.621723 1524.010380,1199.971769 1530.942009,1176.729554 1533.304712,1173.023297 1538.693858,1171.648183 1542.905134,1173.310796 1546.629820,1175.657013 1550.120524,1179.407883 1551.740954,1183.369452 1554.530682,1187.581281 1558.921238,1197.381978 1560.735543,1206.935423 1561.171886,1213.226150 1557.347540,1226.478142 1554.744649,1230.880481 1551.447388,1234.592449 1538.707276,1251.745633 1532.078523,1263.354151 1528.774677,1268.217451 1524.742152,1276.586027 1521.890650,1284.950300 1521.395625,1288.899746 1521.346278,1297.512561 1518.448487,1312.164794 1517.251101,1316.818749 1516.528824,1320.999381 1507.545456,1325.951927"/>
    <poly id="192154542" type="landuse.residential" color="235,235,227" fill="1" layer="-3.00" shape="2183.834465,7.098343 2143.264420,73.333533 2110.748957,128.478009 2102.418027,155.498140 2082.794637,199.502252 2069.328834,231.840012 2066.404528,229.586855 2058.611905,243.413691 2027.254830,325.788154 1987.679888,422.795266 2009.064628,427.734218 2046.608413,421.252638 2087.630255,410.041815 2137.402004,402.446369 2195.529712,402.659955 2226.517227,404.001264 2257.865524,405.112233 2283.092577,406.265398 2319.887375,403.245328 2328.194290,421.294511 2364.050591,438.484464 2462.477298,469.000547 2445.106414,400.515451 2420.003045,330.059321 2396.014681,269.208106 2379.695707,217.634363 2380.069005,153.082516 2383.138825,89.321225 2333.048162,64.819740 2183.834465,7.098343"/>
    <poly id="370134722" type="building.yes" color="255,230,230" fill="1" layer="-1.00" shape="1110.550948,430.158428 1113.279822,448.695427 1096.464025,451.145862 1090.538431,445.698471 1088.719206,433.333095 1110.550948,430.158428"/>
    <poly id="563785590" type="amenity.school" color="237,199,199" fill="1" layer="-1.00" shape="912.725632,1165.527840 1155.133488,1164.716829 1152.863562,887.535190 916.410571,905.905352 912.725632,1165.527840"/>
    <poly id="674684900" type="leisure.pitch" color="207,245,201" fill="1" layer="-2.00" shape="2276.749696,887.300701 2288.595392,934.486628 2291.427369,1016.659674 2276.873666,1056.020964 2226.175434,1059.016133 2150.214698,1047.617519 2150.038734,887.665112 2229.423287,877.174283 2276.749696,887.300701"/>
    <poly id="674710859" type="leisure.park" color="207,245,201" fill="1" layer="-2.00" shape="1768.043315,612.337750 1755.116158,610.071482 1742.397844,617.936222 1748.403464,627.281265 1767.687377,626.030307 1768.043315,612.337750"/>
    <poly id="674934635" type="leisure.park" color="207,245,201" fill="1" layer="-2.00" shape="1376.445022,905.816939 1378.508820,882.546828 1403.743737,876.801495 1408.210074,891.340879 1396.187197,897.992084 1395.446712,907.154479 1376.445022,905.816939"/>
    <poly id="674939972" type="leisure.park" color="207,245,201" fill="1" layer="-2.00" shape="2170.195561,544.663183 2170.898654,517.145162 2236.466827,516.427623 2236.097813,532.312133 2185.676735,535.032331 2182.445708,545.010643 2170.195561,544.663183"/>
    <poly id="675028359" type="leisure.park" color="207,245,201" fill="1" layer="-2.00" shape="1324.432743,506.162380 1319.370383,488.054830 1349.855544,478.431393 1356.408045,501.750751 1324.432743,506.162380"/>
    <poly id="704084256" type="building.yes" color="255,230,230" fill="1" layer="-1.00" shape="2250.516831,873.731300 2259.760571,873.574351 2259.445874,855.161735 2250.202122,855.318685 2250.516831,873.731300"/>
    <poly id="704084257" type="building.yes" color="255,230,230" fill="1" layer="-1.00" shape="2226.446789,867.979374 2249.586989,867.581616 2249.387316,855.922875 2226.247098,856.320633 2226.446789,867.979374"/>
    <poly id="704084258" type="building.yes" color="255,230,230" fill="1" layer="-1.00" shape="2213.590960,876.529321 2224.436927,876.348389 2224.050921,854.270918 2213.204938,854.451851 2213.590960,876.529321"/>
    <poly id="704084259" type="building.yes" color="255,230,230" fill="1" layer="-1.00" shape="2215.984818,819.439786 2232.787973,819.149334 2232.170539,783.796598 2215.367410,784.075982 2215.984818,819.439786"/>
    <poly id="704084260" type="building.yes" color="255,230,230" fill="1" layer="-1.00" shape="2160.617976,830.478883 2172.265123,830.280394 2172.119770,821.655377 2160.472617,821.853867 2151.362351,822.011648 2151.632491,837.490228 2160.742747,837.332448 2160.617976,830.478883"/>
    <poly id="704084261" type="building.yes" color="255,230,230" fill="1" layer="-1.00" shape="2192.908379,833.687576 2216.007551,833.289529 2215.884850,826.081708 2192.775398,826.479696 2192.908379,833.687576"/>
    <poly id="704084262" type="building.yes" color="255,230,230" fill="1" layer="-1.00" shape="2178.138451,850.031441 2214.024771,849.419355 2213.815887,837.572358 2177.939808,838.184504 2178.138451,850.031441"/>
    <poly id="704084263" type="building.yes" color="255,230,230" fill="1" layer="-1.00" shape="2178.144337,861.467645 2212.911129,860.871238 2212.763946,852.567263 2177.997135,853.163671 2178.144337,861.467645"/>
    <poly id="704084264" type="building.yes" color="255,230,230" fill="1" layer="-1.00" shape="2095.998391,861.060194 2133.784784,860.414592 2133.228784,828.615959 2095.442313,829.261564 2095.998391,861.060194"/>
    <poly id="704084265" type="building.yes" color="255,230,230" fill="1" layer="-1.00" shape="2146.766344,846.086331 2160.837397,845.846463 2160.713137,838.904335 2146.642014,839.155273 2146.766344,846.086331"/>
    <poly id="704084266" type="building.yes" color="255,230,230" fill="1" layer="-1.00" shape="2150.598846,861.784739 2172.650293,861.413796 2172.534456,854.792770 2160.599718,855.000669 2160.484003,848.357503 2150.367216,848.531618 2150.482935,855.174784 2150.598846,861.784739"/>
    <poly id="704084267" type="building.yes" color="255,230,230" fill="1" layer="-1.00" shape="2279.480570,759.481553 2292.565705,759.258250 2292.410788,750.522466 2279.335915,750.745830 2279.480570,759.481553"/>
    <poly id="704084268" type="building.yes" color="255,230,230" fill="1" layer="-1.00" shape="2274.196709,731.928933 2295.529484,731.554008 2295.390053,723.692910 2274.067601,724.056825 2274.196709,731.928933"/>
    <poly id="704084269" type="building.yes" color="255,230,230" fill="1" layer="-1.00" shape="2274.555658,742.680786 2293.864994,742.349523 2293.795726,738.341481 2274.486385,738.672744 2274.555658,742.680786"/>
    <poly id="704084270" type="building.yes" color="255,230,230" fill="1" layer="-1.00" shape="2274.652386,749.047074 2294.177374,748.717058 2294.099436,744.432195 2274.584648,744.773341 2274.652386,749.047074"/>
    <poly id="704180699" type="building.yes" color="255,230,230" fill="1" layer="-1.00" shape="1111.210098,768.519016 1124.643658,766.613934 1122.608996,752.420636 1109.165091,754.336732 1111.210098,768.519016"/>
    <poly id="704180700" type="building.yes" color="255,230,230" fill="1" layer="-1.00" shape="1417.004298,871.020900 1421.237467,870.668713 1424.794112,868.297768 1421.143046,863.837482 1420.410494,864.431115 1416.475327,864.751795 1417.004298,871.020900"/>
    <poly id="704180704" type="building.yes" color="255,230,230" fill="1" layer="-1.00" shape="1521.765879,903.393886 1532.565654,902.304390 1530.445769,881.545539 1517.756021,882.690635 1521.765879,903.393886"/>
    <poly id="704180705" type="building.yes" color="255,230,230" fill="1" layer="-1.00" shape="1511.154968,893.026178 1517.905607,892.433808 1516.805468,880.105691 1510.054823,880.698061 1511.154968,893.026178"/>
    <poly id="704180706" type="building.yes" color="255,230,230" fill="1" layer="-1.00" shape="1524.853674,880.683192 1534.569591,880.561721 1534.724981,874.949708 1524.807092,876.265671 1524.853674,880.683192"/>
    <poly id="704180707" type="building.yes" color="255,230,230" fill="1" layer="-1.00" shape="1524.780596,875.512704 1535.225716,873.590867 1534.358975,868.925088 1523.913852,870.846926 1524.780596,875.512704"/>
    <poly id="704180708" type="building.yes" color="255,230,230" fill="1" layer="-1.00" shape="1521.361979,859.163670 1536.416008,857.633572 1535.667627,850.233981 1520.603384,851.752950 1521.361979,859.163670"/>
    <poly id="704180709" type="building.yes" color="255,230,230" fill="1" layer="-1.00" shape="1510.733781,857.187541 1521.763954,855.324400 1520.760601,849.406838 1509.730487,851.258910 1510.733781,857.187541"/>
    <poly id="704180710" type="building.yes" color="255,230,230" fill="1" layer="-1.00" shape="1525.781003,838.918324 1537.831301,834.669741 1535.213428,827.336935 1523.173458,831.574508 1525.781003,838.918324"/>
    <poly id="704180711" type="building.yes" color="255,230,230" fill="1" layer="-1.00" shape="1524.998025,850.106431 1540.115658,844.646562 1536.960863,836.026465 1521.843222,841.486337 1524.998025,850.106431"/>
    <poly id="704180712" type="building.yes" color="255,230,230" fill="1" layer="-1.00" shape="1510.232869,849.612236 1524.291405,846.172244 1522.434484,838.666667 1508.365672,842.106601 1510.232869,849.612236"/>
    <poly id="704180713" type="building.yes" color="255,230,230" fill="1" layer="-1.00" shape="1496.174204,874.596042 1512.287741,874.555478 1512.266135,867.569671 1496.152590,867.610235 1496.174204,874.596042"/>
    <poly id="704180714" type="building.yes" color="255,230,230" fill="1" layer="-1.00" shape="1494.766974,867.469451 1510.619029,866.464226 1510.071906,857.991920 1494.230112,858.997204 1494.766974,867.469451"/>
    <poly id="704180715" type="building.yes" color="255,230,230" fill="1" layer="-1.00" shape="1499.125795,857.729955 1506.809322,857.430764 1506.594367,851.927339 1498.910837,852.226530 1499.125795,857.729955"/>
    <poly id="704180716" type="building.yes" color="255,230,230" fill="1" layer="-1.00" shape="1485.387784,857.208454 1494.110809,856.516659 1494.283234,858.687526 1498.577963,858.346783 1497.858915,849.408519 1493.574453,849.749321 1493.718732,851.455052 1484.985435,852.146789 1485.387784,857.208454"/>
    <poly id="704180717" type="building.yes" color="255,230,230" fill="1" layer="-1.00" shape="1498.576129,851.493939 1508.251302,851.316863 1508.046876,840.388799 1498.371632,840.576947 1498.576129,851.493939"/>
    <poly id="704180718" type="building.yes" color="255,230,230" fill="1" layer="-1.00" shape="1483.613382,849.636929 1497.498470,847.790116 1496.582588,840.943109 1482.697557,842.778852 1483.613382,849.636929"/>
    <poly id="704180719" type="building.yes" color="255,230,230" fill="1" layer="-1.00" shape="1488.932777,840.733241 1501.265027,839.253948 1500.313964,831.377154 1489.228245,832.177195 1490.668002,837.211588 1488.498035,837.741633 1488.932777,840.733241"/>
    <poly id="704180720" type="building.yes" color="255,230,230" fill="1" layer="-1.00" shape="1483.533946,838.399599 1489.820516,836.354283 1484.627006,823.272057 1477.716529,826.664443 1483.533946,838.399599"/>
    <poly id="704180721" type="building.yes" color="255,230,230" fill="1" layer="-1.00" shape="1509.347740,840.983003 1524.464995,835.589541 1522.483377,830.131349 1507.376449,835.513802 1509.347740,840.983003"/>
    <poly id="704180722" type="building.yes" color="255,230,230" fill="1" layer="-1.00" shape="1506.075395,834.952810 1522.319445,830.063985 1519.950505,822.300846 1503.706131,827.245026 1506.075395,834.952810"/>
    <poly id="704180723" type="building.yes" color="255,230,230" fill="1" layer="-1.00" shape="1506.229573,825.964193 1521.200089,821.090215 1519.383223,815.555472 1504.402433,820.429393 1506.229573,825.964193"/>
    <poly id="704180724" type="building.yes" color="255,230,230" fill="1" layer="-1.00" shape="1510.685972,817.121995 1518.454089,814.609131 1514.981747,804.049828 1507.213562,806.573764 1510.685972,817.121995"/>
    <poly id="704180725" type="building.yes" color="255,230,230" fill="1" layer="-1.00" shape="1504.897336,818.295560 1510.042861,816.442992 1506.665664,807.201662 1501.530405,809.054291 1504.897336,818.295560"/>
    <poly id="704180726" type="building.yes" color="255,230,230" fill="1" layer="-1.00" shape="1500.298566,821.512971 1504.733466,820.010598 1500.975599,809.095397 1496.540632,810.608842 1500.298566,821.512971"/>
    <poly id="704180727" type="building.yes" color="255,230,230" fill="1" layer="-1.00" shape="1495.825504,822.505871 1498.778554,821.526408 1494.912473,811.573750 1490.166570,811.790132 1493.488752,821.673249 1495.330604,821.052760 1495.825504,822.505871"/>
    <poly id="704180728" type="building.yes" color="255,230,230" fill="1" layer="-1.00" shape="1490.132403,823.137519 1493.095722,822.158114 1489.773540,812.274997 1486.820489,813.254461 1490.132403,823.137519"/>
    <poly id="704180729" type="building.yes" color="255,230,230" fill="1" layer="-1.00" shape="1442.979685,791.526123 1444.265211,791.212427 1443.341197,787.575913 1434.928382,789.686577 1436.414757,795.551541 1443.541980,793.765645 1442.979685,791.526123"/>
    <poly id="704180730" type="building.yes" color="255,230,230" fill="1" layer="-1.00" shape="1438.441671,800.279306 1444.266824,799.903023 1443.992704,795.760970 1438.167549,796.137254 1438.441671,800.279306"/>
    <poly id="704180731" type="building.yes" color="255,230,230" fill="1" layer="-1.00" shape="1446.786591,799.264266 1455.485107,795.682826 1452.618057,788.813584 1443.919538,792.395025 1446.786591,799.264266"/>
    <poly id="704180732" type="building.yes" color="255,230,230" fill="1" layer="-1.00" shape="1460.404887,820.708878 1465.545038,830.558112 1470.330233,827.064988 1464.643712,819.371433 1464.617784,818.518832 1460.324122,818.671387 1460.404887,820.708878"/>
    <poly id="704180733" type="building.yes" color="255,230,230" fill="1" layer="-1.00" shape="1458.076912,834.489784 1465.194861,830.733241 1460.358233,821.682843 1453.250487,825.450518 1458.076912,834.489784"/>
    <poly id="704180734" type="building.yes" color="255,230,230" fill="1" layer="-1.00" shape="1439.411734,829.965701 1450.670574,829.421243 1450.274543,821.459063 1439.015697,822.003522 1439.411734,829.965701"/>
    <poly id="704180735" type="building.yes" color="255,230,230" fill="1" layer="-1.00" shape="1449.601314,818.864640 1464.825201,818.165753 1464.303719,807.003390 1449.079821,807.702278 1449.601314,818.864640"/>
    <poly id="704180736" type="building.yes" color="255,230,230" fill="1" layer="-1.00" shape="1441.867234,815.432708 1448.893976,815.052233 1448.111869,800.976755 1441.085121,801.357232 1441.867234,815.432708"/>
    <poly id="704180737" type="building.yes" color="255,230,230" fill="1" layer="-1.00" shape="1430.446092,813.828507 1440.444324,811.040524 1437.445022,800.362169 1427.436514,803.150096 1430.446092,813.828507"/>
    <poly id="704180738" type="building.yes" color="255,230,230" fill="1" layer="-1.00" shape="1426.117885,800.275211 1434.707999,797.689512 1433.357161,793.264528 1424.767045,795.850228 1426.117885,800.275211"/>
    <poly id="704180739" type="building.yes" color="255,230,230" fill="1" layer="-1.00" shape="1424.318101,795.338402 1433.566035,792.656829 1432.588834,789.341065 1423.351167,792.022697 1424.318101,795.338402"/>
    <poly id="704180740" type="building.yes" color="255,230,230" fill="1" layer="-1.00" shape="1422.104241,790.974907 1430.490552,788.111269 1429.500420,785.260405 1421.124440,788.113032 1422.104241,790.974907"/>
    <poly id="704180741" type="building.yes" color="255,230,230" fill="1" layer="-1.00" shape="1431.450185,789.113133 1442.722993,786.133169 1441.194654,780.422955 1429.921842,783.402920 1431.450185,789.113133"/>
    <poly id="704180742" type="building.yes" color="255,230,230" fill="1" layer="-1.00" shape="1449.291876,788.595272 1452.719861,787.175686 1448.748320,777.698483 1445.310001,779.129081 1449.291876,788.595272"/>
    <poly id="704180743" type="building.yes" color="255,230,230" fill="1" layer="-1.00" shape="1471.429422,807.276669 1479.146887,806.435188 1478.512011,800.730085 1470.794543,801.571567 1471.429422,807.276669"/>
    <poly id="704180744" type="building.yes" color="255,230,230" fill="1" layer="-1.00" shape="1461.519223,805.448608 1470.276317,804.192382 1468.122423,789.356235 1459.375654,790.601451 1461.519223,805.448608"/>
    <poly id="704180745" type="building.yes" color="255,230,230" fill="1" layer="-1.00" shape="1470.298245,800.362007 1479.115375,799.382900 1478.148195,790.731059 1469.320790,791.710108 1470.298245,800.362007"/>
    <poly id="704180746" type="building.yes" color="255,230,230" fill="1" layer="-1.00" shape="1485.622568,805.442679 1491.258750,803.991463 1486.746564,786.706230 1481.110313,788.168519 1485.622568,805.442679"/>
    <poly id="704180747" type="building.yes" color="255,230,230" fill="1" layer="-1.00" shape="1505.482776,800.353126 1508.291867,799.406053 1502.675725,783.011228 1499.866631,783.958302 1505.482776,800.353126"/>
    <poly id="704180748" type="building.yes" color="255,230,230" fill="1" layer="-1.00" shape="1515.421196,793.667922 1524.870227,791.740371 1523.760814,786.408955 1514.322048,788.336566 1515.421196,793.667922"/>
    <poly id="704180749" type="building.yes" color="255,230,230" fill="1" layer="-1.00" shape="1513.542073,788.243532 1524.330457,785.570836 1523.246207,781.224867 1512.447487,783.908575 1513.542073,788.243532"/>
    <poly id="704180750" type="building.yes" color="255,230,230" fill="1" layer="-1.00" shape="1511.988593,783.341335 1523.465608,780.572946 1521.920375,774.231589 1510.433021,777.010992 1511.988593,783.341335"/>
    <poly id="704180751" type="building.yes" color="255,230,230" fill="1" layer="-1.00" shape="1507.726052,776.264815 1521.753656,772.857854 1519.626104,764.188291 1505.588223,767.595196 1507.726052,776.264815"/>
    <poly id="704180752" type="building.yes" color="255,230,230" fill="1" layer="-1.00" shape="1526.801882,775.444129 1535.663408,773.889626 1534.598753,767.916358 1525.737224,769.470862 1526.801882,775.444129"/>
    <poly id="704180753" type="building.yes" color="255,230,230" fill="1" layer="-1.00" shape="1524.599209,769.132219 1535.979119,767.182522 1534.795796,760.411476 1523.426151,762.361233 1524.599209,769.132219"/>
    <poly id="704180754" type="building.yes" color="255,230,230" fill="1" layer="-1.00" shape="1523.537203,768.074408 1535.049856,766.258321 1534.256580,761.316194 1522.754192,763.132340 1523.537203,768.074408"/>
    <poly id="704180755" type="building.yes" color="255,230,230" fill="1" layer="-1.00" shape="1524.144637,762.431773 1534.275221,759.854953 1533.360988,756.307056 1523.230402,758.883876 1524.144637,762.431773"/>
    <poly id="704180756" type="building.yes" color="255,230,230" fill="1" layer="-1.00" shape="1523.181528,758.451835 1533.322383,755.875073 1532.408149,752.327175 1522.267292,754.903938 1523.181528,758.451835"/>
    <poly id="704180757" type="building.yes" color="255,230,230" fill="1" layer="-1.00" shape="1507.508563,765.823793 1522.120779,762.553030 1519.967299,753.030867 1505.344806,756.301573 1507.508563,765.823793"/>
    <poly id="704180758" type="building.yes" color="255,230,230" fill="1" layer="-1.00" shape="1521.726431,754.303016 1533.480431,751.591574 1532.818877,748.753656 1521.064938,751.454028 1521.726431,754.303016"/>
    <poly id="704180759" type="building.yes" color="255,230,230" fill="1" layer="-1.00" shape="1520.225372,751.006386 1532.914473,748.200663 1531.983378,744.010561 1519.294274,746.816286 1520.225372,751.006386"/>
    <poly id="704180760" type="building.yes" color="255,230,230" fill="1" layer="-1.00" shape="1519.157158,745.653065 1531.013606,742.986491 1529.380701,735.814321 1517.524248,738.480897 1519.157158,745.653065"/>
    <poly id="704180761" type="building.yes" color="255,230,230" fill="1" layer="-1.00" shape="1505.533842,755.571982 1518.018306,752.632225 1516.904955,747.987178 1504.430694,750.938065 1505.533842,755.571982"/>
    <poly id="704180762" type="building.yes" color="255,230,230" fill="1" layer="-1.00" shape="1503.916520,749.263428 1516.534113,746.390856 1514.970996,739.584425 1502.353398,742.456998 1503.916520,749.263428"/>
    <poly id="704180763" type="building.yes" color="255,230,230" fill="1" layer="-1.00" shape="1517.380675,731.272976 1530.541811,728.536378 1529.572172,723.903224 1516.400826,726.628694 1517.380675,731.272976"/>
    <poly id="704180764" type="building.yes" color="255,230,230" fill="1" layer="-1.00" shape="1500.806632,727.413978 1512.176173,725.486345 1509.612474,710.481783 1498.242922,712.409418 1500.806632,727.413978"/>
    <poly id="704180765" type="building.yes" color="255,230,230" fill="1" layer="-1.00" shape="1500.733347,740.211417 1513.558303,736.996835 1512.071950,731.131862 1499.246990,734.346446 1500.733347,740.211417"/>
    <poly id="704180766" type="building.yes" color="255,230,230" fill="1" layer="-1.00" shape="1455.492376,787.235838 1472.973873,783.261850 1470.038039,770.469327 1450.131406,776.488610 1455.492376,787.235838"/>
    <poly id="704180767" type="building.yes" color="255,230,230" fill="1" layer="-1.00" shape="1481.100230,782.754834 1478.243390,770.516302 1472.083578,771.942384 1474.940423,784.180915 1481.100230,782.754834"/>
    <poly id="704180768" type="building.yes" color="255,230,230" fill="1" layer="-1.00" shape="1482.140367,782.251532 1490.861342,780.131587 1487.900673,768.091733 1479.179691,770.211680 1482.140367,782.251532"/>
    <poly id="704180769" type="building.yes" color="255,230,230" fill="1" layer="-1.00" shape="1492.607731,776.455007 1499.740041,775.576972 1496.844230,752.212047 1489.711909,753.090084 1490.722636,761.310413 1487.845076,761.659273 1488.787973,769.170682 1491.655263,768.821764 1492.607731,776.455007"/>
    <poly id="704180770" type="building.yes" color="255,230,230" fill="1" layer="-1.00" shape="1480.504267,766.665533 1486.869028,765.318123 1484.548424,754.488653 1478.193992,755.825052 1480.504267,766.665533"/>
    <poly id="704180771" type="building.yes" color="255,230,230" fill="1" layer="-1.00" shape="1458.555058,768.897964 1465.355762,766.744872 1464.205505,763.162416 1457.415068,765.315567 1458.555058,768.897964"/>
    <poly id="704180772" type="building.yes" color="255,230,230" fill="1" layer="-1.00" shape="1448.960543,772.917107 1457.977050,769.403913 1455.152595,762.269215 1446.146355,765.782470 1448.960543,772.917107"/>
    <poly id="704180773" type="building.yes" color="255,230,230" fill="1" layer="-1.00" shape="1444.309532,774.495756 1448.107412,773.045074 1445.294047,765.766521 1441.496102,767.228275 1444.309532,774.495756"/>
    <poly id="704180774" type="building.yes" color="255,230,230" fill="1" layer="-1.00" shape="1440.442946,778.979448 1444.423332,777.939430 1442.593623,771.053985 1438.623568,772.082992 1440.442946,778.979448"/>
    <poly id="704180775" type="building.yes" color="255,230,230" fill="1" layer="-1.00" shape="1450.020052,763.645832 1455.442169,761.916607 1452.334405,752.245072 1446.902016,753.974240 1450.020052,763.645832"/>
    <poly id="704180776" type="building.yes" color="255,230,230" fill="1" layer="-1.00" shape="1444.308541,762.107514 1448.106044,760.723254 1445.628466,753.989093 1441.830962,755.373353 1444.308541,762.107514"/>
    <poly id="704180777" type="building.yes" color="255,230,230" fill="1" layer="-1.00" shape="1437.939741,767.750392 1444.268805,765.461742 1441.558892,758.050932 1435.229825,760.339584 1437.939741,767.750392"/>
    <poly id="704180778" type="building.yes" color="255,230,230" fill="1" layer="-1.00" shape="1427.324471,781.450666 1433.133519,778.505858 1430.848216,774.064457 1425.039166,777.009266 1427.324471,781.450666"/>
    <poly id="704180779" type="building.yes" color="255,230,230" fill="1" layer="-1.00" shape="1422.712799,776.154574 1428.887434,773.931459 1426.309055,766.864599 1420.134418,769.087716 1422.712799,776.154574"/>
    <poly id="704180780" type="building.yes" color="255,230,230" fill="1" layer="-1.00" shape="1455.067895,759.124620 1464.726068,756.545050 1462.744857,749.215904 1453.086679,751.795475 1455.067895,759.124620"/>
    <poly id="704180781" type="building.yes" color="255,230,230" fill="1" layer="-1.00" shape="1456.555470,764.779248 1465.937376,762.020965 1464.506542,757.219113 1455.124633,759.977397 1456.555470,764.779248"/>
    <poly id="704180782" type="building.yes" color="255,230,230" fill="1" layer="-1.00" shape="1470.934687,748.388192 1471.926525,750.940156 1496.318138,747.238240 1494.188096,740.793901 1470.934687,748.388192"/>
    <poly id="704180783" type="building.yes" color="255,230,230" fill="1" layer="-1.00" shape="1487.727406,731.988825 1495.331565,729.419655 1490.149745,714.289397 1482.545579,716.858570 1487.727406,731.988825"/>
    <poly id="704180784" type="building.yes" color="255,230,230" fill="1" layer="-1.00" shape="1475.609342,737.299859 1487.143690,733.491113 1481.600780,716.853161 1470.056151,720.661852 1475.609342,737.299859"/>
    <poly id="704180785" type="building.yes" color="255,230,230" fill="1" layer="-1.00" shape="1469.271510,737.529276 1474.522859,735.134831 1466.904533,718.651065 1461.653117,721.056583 1469.271510,737.529276"/>
    <poly id="704180786" type="building.yes" color="255,230,230" fill="1" layer="-1.00" shape="1460.960725,739.751219 1467.405431,736.998265 1460.300387,720.550654 1453.855676,723.303610 1460.960725,739.751219"/>