<?xml version="1.0" encoding="UTF-8"?>

<!-- generated on Mon Nov 23 14:21:39 2020 by Eclipse SUMO duarouter Version 1.7.0
<configuration xmlns:xsi="http://www.w3.org/2001/XMLSchema-instance" xsi:noNamespaceSchemaLocation="http://sumo.dlr.de/xsd/duarouterConfiguration.xsd">

    <input>
        <net-file value="/home/manas/Sumo/2020-11-23-14-21-29/osm.net.xml"/>
        <route-files value="/home/manas/Sumo/2020-11-23-14-21-29/osm.passenger.trips.xml"/>
    </input>

    <output>
        <output-file value="/home/manas/Sumo/2020-11-23-14-21-29/osm.passenger.trips.xml.tmp"/>
        <write-trips value="true"/>
    </output>

    <time>
        <begin value="0"/>
        <end value="1000"/>
    </time>

    <report>
        <no-warnings value="true"/>
        <ignore-errors value="true"/>
        <no-step-log value="true"/>
    </report>

</configuration>
-->

<routes xmlns:xsi="http://www.w3.org/2001/XMLSchema-instance" xsi:noNamespaceSchemaLocation="http://sumo.dlr.de/xsd/routes_file.xsd">
    <vType id="veh_passenger" vClass="passenger"/>
    <trip id="veh0" type="veh_passenger" depart="0.00" departLane="best" from="-369835574#2" to="-369665651#0"/>
    <trip id="veh1" type="veh_passenger" depart="5.44" departLane="best" from="369673289#1" to="369518896#0"/>
    <trip id="veh2" type="veh_passenger" depart="10.89" departLane="best" from="369855656#5" to="-191953150#25"/>
    <trip id="veh3" type="veh_passenger" depart="16.33" departLane="best" from="-369999835#1" to="-191953049#3"/>
    <trip id="veh4" type="veh_passenger" depart="21.78" departLane="best" from="-369665646#1" to="191953049#10"/>
    <trip id="veh5" type="veh_passenger" depart="27.22" departLane="best" from="-191953049#11" to="-369665627#6"/>
    <trip id="veh6" type="veh_passenger" depart="32.67" departLane="best" from="-369665646#2" to="191953150#7"/>
    <trip id="veh7" type="veh_passenger" depart="38.11" departLane="best" from="369835613#0" to="-191953031#12"/>
    <trip id="veh8" type="veh_passenger" depart="43.56" departLane="best" from="369835605" to="369665626#0"/>
    <trip id="veh9" type="veh_passenger" depart="49.00" departLane="best" from="-369835640#0" to="-369518892"/>
    <trip id="veh10" type="veh_passenger" depart="54.45" departLane="best" from="369999895#0" to="-369835636#4"/>
    <trip id="veh11" type="veh_passenger" depart="59.89" departLane="best" from="369835636#5" to="191953198"/>
    <trip id="veh12" type="veh_passenger" depart="65.34" departLane="best" from="369835606" to="369665646#1"/>
    <trip id="veh14" type="veh_passenger" depart="76.23" departLane="best" from="-369855656#4" to="191953137#3"/>
    <trip id="veh15" type="veh_passenger" depart="81.67" departLane="best" from="369835626" to="362202277#0"/>
    <trip id="veh16" type="veh_passenger" depart="87.12" departLane="best" from="369835643#2" to="191953150#22"/>
    <trip id="veh17" type="veh_passenger" depart="92.56" departLane="best" from="369665632#0" to="-191953096#1"/>
    <trip id="veh18" type="veh_passenger" depart="98.01" departLane="best" from="-369665653#1" to="-369835592#1"/>
    <trip id="veh19" type="veh_passenger" depart="103.45" departLane="best" from="-191953150#19" to="-369673288"/>
    <trip id="veh20" type="veh_passenger" depart="108.90" departLane="best" from="-191953155" to="-369835576#0"/>
    <trip id="veh21" type="veh_passenger" depart="114.34" departLane="best" from="369518871#3" to="-369835646#3"/>
    <trip id="veh22" type="veh_passenger" depart="119.79" departLane="best" from="-369855654#2" to="-369665632#2"/>
    <trip id="veh23" type="veh_passenger" depart="125.23" departLane="best" from="369518890#2" to="191953198"/>
    <trip id="veh24" type="veh_passenger" depart="130.68" departLane="best" from="-369518895#1" to="-369855656#4"/>
    <trip id="veh25" type="veh_passenger" depart="136.12" departLane="best" from="370134726#2" to="369518866"/>
    <trip id="veh26" type="veh_passenger" depart="141.57" departLane="best" from="191953143#2" to="369665623#1"/>
    <trip id="veh27" type="veh_passenger" depart="147.01" departLane="best" from="369835636#2" to="369676971"/>
    <trip id="veh28" type="veh_passenger" depart="152.46" departLane="best" from="-369665637" to="369999818"/>
    <trip id="veh29" type="veh_passenger" depart="157.90" departLane="best" from="369518894#1" to="-369855687#1"/>
    <trip id="veh30" type="veh_passenger" depart="163.35" departLane="best" from="-369835568#5" to="-369673302#2"/>
    <trip id="veh31" type="veh_passenger" depart="168.79" departLane="best" from="191953150#10" to="-369835568#3"/>
    <trip id="veh32" type="veh_passenger" depart="174.24" departLane="best" from="191953150#28" to="369855654#3"/>
    <trip id="veh33" type="veh_passenger" depart="179.68" departLane="best" from="-369855689" to="-369665646#1"/>
    <trip id="veh34" type="veh_passenger" depart="185.13" departLane="best" from="-191953150#3" to="-191953097"/>
    <trip id="veh35" type="veh_passenger" depart="190.57" departLane="best" from="-362202277#0" to="362206532#0"/>
    <trip id="veh36" type="veh_passenger" depart="196.01" departLane="best" from="-191953150#0" to="-369855656#5"/>
    <trip id="veh37" type="veh_passenger" depart="201.46" departLane="best" from="704625031#0" to="191953094"/>
    <trip id="veh38" type="veh_passenger" depart="206.90" departLane="best" from="370006687#0" to="369835636#4"/>
    <trip id="veh39" type="veh_passenger" depart="212.35" departLane="best" from="369665625" to="191953094"/>
    <trip id="veh40" type="veh_passenger" depart="217.79" departLane="best" from="-369835570#0" to="369518869"/>
    <trip id="veh41" type="veh_passenger" depart="223.24" departLane="best" from="-362202278" to="-369999890#1"/>
    <trip id="veh42" type="veh_passenger" depart="228.68" departLane="best" from="-370006687#3" to="369999890#1"/>
    <trip id="veh43" type="veh_passenger" depart="234.13" departLane="best" from="191953031#12" to="-369665623#4"/>
    <trip id="veh44" type="veh_passenger" depart="239.57" departLane="best" from="369855689" to="369835641#0"/>
    <trip id="veh45" type="veh_passenger" depart="245.02" departLane="best" from="-369835602" to="369518865"/>
    <trip id="veh46" type="veh_passenger" depart="250.46" departLane="best" from="362202385#1" to="-369518890#3"/>
    <trip id="veh47" type="veh_passenger" depart="255.91" departLane="best" from="369676971" to="191953096#1"/>
    <trip id="veh48" type="veh_passenger" depart="261.35" departLane="best" from="369835574#1" to="191953094"/>
    <trip id="veh49" type="veh_passenger" depart="266.80" departLane="best" from="-191953031#0" to="-369835628#0"/>
    <trip id="veh50" type="veh_passenger" depart="272.24" departLane="best" from="-191953036#0" to="369855690#1"/>
    <trip id="veh51" type="veh_passenger" depart="277.69" departLane="best" from="-369835613#4" to="-191953137#2"/>
    <trip id="veh52" type="veh_passenger" depart="283.13" departLane="best" from="369855654#0" to="369999849#0"/>
    <trip id="veh53" type="veh_passenger" depart="288.58" departLane="best" from="-191953150#23" to="191953031#12"/>
    <trip id="veh54" type="veh_passenger" depart="294.02" departLane="best" from="369835568#2" to="-369518866"/>
    <trip id="veh55" type="veh_passenger" depart="299.47" departLane="best" from="191953096#0" to="369665646#1"/>
    <trip id="veh56" type="veh_passenger" depart="304.91" departLane="best" from="-369665627#9" to="-369835613#6"/>
    <trip id="veh57" type="veh_passenger" depart="310.36" departLane="best" from="370135671" to="369518871#3"/>
    <trip id="veh58" type="veh_passenger" depart="315.80" departLane="best" from="-369999900#0" to="191953082#0"/>
    <trip id="veh59" type="veh_passenger" depart="321.25" departLane="best" from="-369507183" to="-369665651#1"/>
    <trip id="veh60" type="veh_passenger" depart="326.69" departLane="best" from="-369835636#5" to="191953150#6"/>
    <trip id="veh61" type="veh_passenger" depart="332.14" departLane="best" from="-369673284" to="-369665646#2"/>
    <trip id="veh62" type="veh_passenger" depart="337.58" departLane="best" from="-191953150#13" to="362206705"/>
    <trip id="veh63" type="veh_passenger" depart="343.03" departLane="best" from="-369673282" to="369855656#4"/>
    <trip id="veh64" type="veh_passenger" depart="348.47" departLane="best" from="369835643#0" to="-191953150#13"/>
    <trip id="veh65" type="veh_passenger" depart="353.92" departLane="best" from="-369673291" to="369518894#0"/>
    <trip id="veh66" type="veh_passenger" depart="359.36" departLane="best" from="-369665643" to="-369518870#1"/>
    <trip id="veh67" type="veh_passenger" depart="364.81" departLane="best" from="369999771#0" to="191953150#17"/>
    <trip id="veh68" type="veh_passenger" depart="370.25" departLane="best" from="-370135671" to="369835568#5"/>
    <trip id="veh69" type="veh_passenger" depart="375.70" departLane="best" from="369835606" to="-369665627#1"/>
    <trip id="veh70" type="veh_passenger" depart="381.14" departLane="best" from="-191953150#8" to="-369999857#1"/>
    <trip id="veh71" type="veh_passenger" depart="386.59" departLane="best" from="370006845#1" to="-191953150#9"/>
    <trip id="veh72" type="veh_passenger" depart="392.03" departLane="best" from="-369855690#3" to="-369835636#5"/>
    <trip id="veh73" type="veh_passenger" depart="397.47" departLane="best" from="369835643#2" to="-369673303"/>
    <trip id="veh74" type="veh_passenger" depart="402.92" departLane="best" from="-369665627#11" to="-369999904#1"/>
    <trip id="veh75" type="veh_passenger" depart="408.36" departLane="best" from="-369673306#0" to="369855687#2"/>
    <trip id="veh76" type="veh_passenger" depart="413.81" departLane="best" from="704625221" to="369835620"/>
    <trip id="veh77" type="veh_passenger" depart="419.25" departLane="best" from="369999904#0" to="369855689"/>
    <trip id="veh78" type="veh_passenger" depart="424.70" departLane="best" from="369835636#6" to="-369518896#1"/>
    <trip id="veh79" type="veh_passenger" depart="430.14" departLane="best" departSpeed="max" from="191943558" to="-369665643"/>
    <trip id="veh80" type="veh_passenger" depart="435.59" departLane="best" from="-369855690#1" to="-191953137#3"/>
    <trip id="veh81" type="veh_passenger" depart="441.03" departLane="best" from="-369855656#4" to="370134725"/>
    <trip id="veh82" type="veh_passenger" depart="446.48" departLane="best" from="-370006720" to="-369999835#1"/>
    <trip id="veh83" type="veh_passenger" depart="451.92" departLane="best" from="369999895#0" to="704625031#0"/>
    <trip id="veh84" type="veh_passenger" depart="457.37" departLane="best" from="191953143#0" to="369665628#1"/>
    <trip id="veh85" type="veh_passenger" depart="462.81" departLane="best" from="-369518892" to="-369835601"/>
    <trip id="veh86" type="veh_passenger" depart="468.26" departLane="best" from="191953097" to="369673288"/>
    <trip id="veh87" type="veh_passenger" depart="473.70" departLane="best" from="191953031#4" to="369835635"/>
    <trip id="veh88" type="veh_passenger" depart="479.15" departLane="best" from="-369518894#0" to="369999900#0"/>
    <trip id="veh89" type="veh_passenger" depart="484.59" departLane="best" from="369855656#4" to="-369673302#2"/>
    <trip id="veh90" type="veh_passenger" depart="490.04" departLane="best" from="191953155" to="362202277#1"/>
    <trip id="veh91" type="veh_passenger" depart="495.48" departLane="best" from="-369999818" to="191953150#28"/>
    <trip id="veh92" type="veh_passenger" depart="500.93" departLane="best" from="191953049#3" to="369999771#0"/>
    <trip id="veh93" type="veh_passenger" depart="506.37" departLane="best" from="-369673291" to="-369855687#1"/>
    <trip id="veh94" type="veh_passenger" depart="511.82" departLane="best" from="369665623#10" to="-369835605"/>
    <trip id="veh95" type="veh_passenger" depart="517.26" departLane="best" from="-369835623" to="369673290"/>
    <trip id="veh96" type="veh_passenger" depart="522.71" departLane="best" from="-191953150#14" to="-370006728"/>
    <trip id="veh97" type="veh_passenger" depart="528.15" departLane="best" from="-191953150#14" to="-369665640"/>
    <trip id="veh98" type="veh_passenger" depart="533.60" departLane="best" from="369855654#2" to="369835643#4"/>
    <trip id="veh99" type="veh_passenger" depart="539.04" departLane="best" from="-369855654#2" to="-369518894#0"/>
    <trip id="veh100" type="veh_passenger" depart="544.49" departLane="best" from="369835628#1" to="369665627#11"/>
    <trip id="veh101" type="veh_passenger" depart="549.93" departLane="best" from="362202386#1" to="370134725"/>
    <trip id="veh102" type="veh_passenger" depart="555.38" departLane="best" from="369518894#0" to="-191953031#2"/>
    <trip id="veh103" type="veh_passenger" depart="560.82" departLane="best" from="369835613#6" to="-369835602"/>
    <trip id="veh104" type="veh_passenger" depart="566.27" departLane="best" from="369518896#1" to="369999771#3"/>
    <trip id="veh105" type="veh_passenger" depart="571.71" departLane="best" from="-369518871#0" to="-362202386#1"/>
    <trip id="veh106" type="veh_passenger" depart="577.16" departLane="best" from="-369835574#0" to="191953198"/>
    <trip id="veh107" type="veh_passenger" depart="582.60" departLane="best" from="369518871#2" to="-369835568#3"/>
    <trip id="veh108" type="veh_passenger" depart="588.04" departLane="best" departSpeed="max" from="191943558" to="369855656#4"/>
    <trip id="veh109" type="veh_passenger" depart="593.49" departLane="best" from="369835636#4" to="-191953150#4"/>
    <trip id="veh110" type="veh_passenger" depart="598.93" departLane="best" from="-369999848" to="-369835576#0"/>
    <trip id="veh111" type="veh_passenger" depart="604.38" departLane="best" from="-191953031#10" to="369673306#0"/>
    <trip id="veh112" type="veh_passenger" depart="609.82" departLane="best" from="369518873" to="-369835568#2"/>
    <trip id="veh113" type="veh_passenger" depart="615.27" departLane="best" from="-369999857#0" to="-191953031#4"/>
    <trip id="veh114" type="veh_passenger" depart="620.71" departLane="best" from="-191953150#16" to="369835645#1"/>
    <trip id="veh115" type="veh_passenger" depart="626.16" departLane="best" from="369855686" to="191953120"/>
    <trip id="veh116" type="veh_passenger" depart="631.60" departLane="best" from="-369673305#0" to="-191953178#0"/>
    <trip id="veh117" type="veh_passenger" depart="637.05" departLane="best" from="-369999771#1" to="362202278"/>
    <trip id="veh118" type="veh_passenger" depart="642.49" departLane="best" from="-369518890#4" to="369855690#3"/>
    <trip id="veh119" type="veh_passenger" depart="647.94" departLane="best" from="369835643#4" to="370006687#3"/>
    <trip id="veh120" type="veh_passenger" depart="653.38" departLane="best" from="-191953049#10" to="369665651#1"/>
    <trip id="veh121" type="veh_passenger" depart="658.83" departLane="best" from="-369835636#1" to="369855690#3"/>
    <trip id="veh122" type="veh_passenger" depart="664.27" departLane="best" from="369835580" to="-191953191#2"/>
    <trip id="veh123" type="veh_passenger" depart="669.72" departLane="best" from="-369665651#0" to="369835600"/>
    <trip id="veh124" type="veh_passenger" depart="675.16" departLane="best" from="-370006734" to="-369835613#1"/>
    <trip id="veh125" type="veh_passenger" depart="680.61" departLane="best" from="369835592#1" to="-369665653#1"/>
    <trip id="veh126" type="veh_passenger" depart="686.05" departLane="best" from="-191953049#1" to="-369665627#12"/>
    <trip id="veh127" type="veh_passenger" depart="691.50" departLane="best" from="369518879" to="-369855689"/>
    <trip id="veh128" type="veh_passenger" depart="696.94" departLane="best" from="370006762#1" to="191953094"/>
    <trip id="veh129" type="veh_passenger" depart="702.39" departLane="best" from="369999771#3" to="-362202386#1"/>
    <trip id="veh130" type="veh_passenger" depart="707.83" departLane="best" from="369999904#1" to="-369665623#4"/>
    <trip id="veh131" type="veh_passenger" depart="713.28" departLane="best" from="-191953191#2" to="-369999890#0"/>
    <trip id="veh132" type="veh_passenger" depart="718.72" departLane="best" from="362202277#1" to="191953049#5"/>
    <trip id="veh133" type="veh_passenger" depart="724.17" departLane="best" from="-369855669#0" to="191953150#22"/>
    <trip id="veh134" type="veh_passenger" depart="729.61" departLane="best" from="-191953031#1" to="369855687#3"/>
    <trip id="veh136" type="veh_passenger" depart="740.50" departLane="best" from="369673294" to="369518894#1"/>
    <trip id="veh137" type="veh_passenger" depart="745.95" departLane="best" from="-369835646#3" to="-191953150#12"/>
    <trip id="veh138" type="veh_passenger" depart="751.39" departLane="best" from="369518896#1" to="-369835635"/>
    <trip id="veh139" type="veh_passenger" depart="756.84" departLane="best" from="-369835616" to="369835628#1"/>
    <trip id="veh140" type="veh_passenger" depart="762.28" departLane="best" from="369665646#3" to="-369835605"/>
    <trip id="veh141" type="veh_passenger" depart="767.73" departLane="best" from="-369855690#3" to="-369835600"/>
    <trip id="veh142" type="veh_passenger" depart="773.17" departLane="best" from="-369518866" to="-369999818"/>
    <trip id="veh143" type="veh_passenger" depart="778.61" departLane="best" from="369999788" to="369518896#0"/>
    <trip id="veh144" type="veh_passenger" depart="784.06" departLane="best" from="369855684#1" to="191953198"/>
    <trip id="veh145" type="veh_passenger" depart="789.50" departLane="best" from="-369835606" to="191953121"/>
    <trip id="veh146" type="veh_passenger" depart="794.95" departLane="best" from="-191953031#0" to="-369835590"/>
    <trip id="veh147" type="veh_passenger" depart="800.39" departLane="best" from="369518894#0" to="-370006762#1"/>
    <trip id="veh148" type="veh_passenger" depart="805.84" departLane="best" from="-369999900#3" to="-369665643"/>
    <trip id="veh149" type="veh_passenger" depart="811.28" departLane="best" from="-370135671" to="369855656#1"/>
    <trip id="veh150" type="veh_passenger" depart="816.73" departLane="best" from="369835592#1" to="-369518898"/>
    <trip id="veh151" type="veh_passenger" depart="822.17" departLane="best" from="-191953150#23" to="191953049#9"/>
    <trip id="veh152" type="veh_passenger" depart="827.62" departLane="best" from="369518871#1" to="-369835636#3"/>
    <trip id="veh153" type="veh_passenger" depart="833.06" departLane="best" from="369835613#7" to="369673289#1"/>
    <trip id="veh154" type="veh_passenger" depart="838.51" departLane="best" from="-369665627#7" to="-191953049#1"/>
    <trip id="veh155" type="veh_passenger" depart="843.95" departLane="best" from="-369673302#1" to="-704625031#0"/>
    <trip id="veh156" type="veh_passenger" depart="849.40" departLane="best" from="369835636#6" to="-191953150#14"/>
    <trip id="veh157" type="veh_passenger" depart="854.84" departLane="best" from="-369999797" to="362206532#2"/>
    <trip id="veh158" type="veh_passenger" depart="860.29" departLane="best" from="191953031#0" to="-369673302#0"/>
    <trip id="veh159" type="veh_passenger" depart="865.73" departLane="best" from="369518894#1" to="-191953031#11"/>
    <trip id="veh160" type="veh_passenger" depart="871.18" departLane="best" from="-191953191#0" to="-369999848"/>
    <trip id="veh161" type="veh_passenger" depart="876.62" departLane="best" from="191953049#10" to="-191953103#1"/>
    <trip id="veh162" type="veh_passenger" depart="882.07" departLane="best" from="-369673305#0" to="369835628#1"/>
    <trip id="veh163" type="veh_passenger" depart="887.51" departLane="best" from="-370006728" to="369835576#5"/>
    <trip id="veh164" type="veh_passenger" depart="892.96" departLane="best" from="369529057" to="370134726#0"/>
    <trip id="veh165" type="veh_passenger" depart="898.40" departLane="best" from="191953155" to="369999857#1"/>
    <trip id="veh166" type="veh_passenger" depart="903.85" departLane="best" from="369855656#5" to="191953198"/>
    <trip id="veh167" type="veh_passenger" depart="909.29" departLane="best" from="369665646#3" to="191953049#10"/>
    <trip id="veh168" type="veh_passenger" depart="914.74" departLane="best" from="369835627#0" to="191953121"/>
    <trip id="veh169" type="veh_passenger" depart="920.18" departLane="best" from="369855669#0" to="369673282"/>
    <trip id="veh170" type="veh_passenger" depart="925.63" departLane="best" from="-704625031#0" to="-369835568#0"/>
    <trip id="veh171" type="veh_passenger" depart="931.07" departLane="best" from="-369673303" to="369518865"/>
    <trip id="veh172" type="veh_passenger" depart="936.52" departLane="best" from="369835568#2" to="191953085#1"/>
    <trip id="veh173" type="veh_passenger" depart="941.96" departLane="best" from="369518869" to="-369835574#1"/>
    <trip id="veh174" type="veh_passenger" depart="947.41" departLane="best" from="-191953150#17" to="-369835590"/>
    <trip id="veh175" type="veh_passenger" depart="952.85" departLane="best" from="-369673288" to="369665623#8"/>
    <trip id="veh176" type="veh_passenger" depart="958.30" departLane="best" from="369665632#2" to="-191953150#0"/>
    <trip id="veh177" type="veh_passenger" depart="963.74" departLane="best" from="-369999771#2" to="191953103#0"/>
    <trip id="veh178" type="veh_passenger" depart="969.18" departLane="best" from="191953150#28" to="369665623#9"/>
    <trip id="veh179" type="veh_passenger" depart="974.63" departLane="best" from="369835641#1" to="369673304"/>
    <trip id="veh180" type="veh_passenger" depart="980.07" departLane="best" from="-369855656#5" to="-191953031#11"/>
    <trip id="veh181" type="veh_passenger" depart="985.52" departLane="best" from="-369999818" to="369673288"/>
    <trip id="veh182" type="veh_passenger" depart="990.96" departLane="best" from="191953103#1" to="191953198"/>
    <trip id="veh183" type="veh_passenger" depart="996.41" departLane="best" from="-369999891#0" to="-191953049#2"/>
</routes>
