<?xml version="1.0" encoding="UTF-8"?>

<!-- generated on Mon Nov 23 14:26:52 2020 by Eclipse SUMO duarouter Version 1.7.0
<configuration xmlns:xsi="http://www.w3.org/2001/XMLSchema-instance" xsi:noNamespaceSchemaLocation="http://sumo.dlr.de/xsd/duarouterConfiguration.xsd">

    <input>
        <net-file value="/home/manas/Sumo/2020-11-23-14-26-48/osm.net.xml"/>
        <route-files value="/home/manas/Sumo/2020-11-23-14-26-48/osm.passenger.trips.xml"/>
    </input>

    <output>
        <output-file value="/home/manas/Sumo/2020-11-23-14-26-48/osm.passenger.trips.xml.tmp"/>
        <write-trips value="true"/>
    </output>

    <time>
        <begin value="0"/>
        <end value="1000"/>
    </time>

    <report>
        <no-warnings value="true"/>
        <ignore-errors value="true"/>
        <no-step-log value="true"/>
    </report>

</configuration>
-->

<routes xmlns:xsi="http://www.w3.org/2001/XMLSchema-instance" xsi:noNamespaceSchemaLocation="http://sumo.dlr.de/xsd/routes_file.xsd">
    <vType id="veh_passenger" vClass="passenger"/>
    <trip id="veh0" type="veh_passenger" depart="0.00" departLane="best" from="224639758#3" to="-224623084"/>
    <trip id="veh1" type="veh_passenger" depart="4.76" departLane="best" from="-36926667#1" to="-30842825#3"/>
    <trip id="veh2" type="veh_passenger" depart="9.52" departLane="best" from="30842825#7" to="26807590#19"/>
    <trip id="veh3" type="veh_passenger" depart="14.28" departLane="best" from="400478704" to="-224623108"/>
    <trip id="veh4" type="veh_passenger" depart="19.04" departLane="best" from="133488796#2" to="-224623085#1"/>
    <trip id="veh5" type="veh_passenger" depart="23.80" departLane="best" from="-30842825#1" to="224623078#5"/>
    <trip id="veh6" type="veh_passenger" depart="28.55" departLane="best" from="-224623085#0" to="-30810603#2"/>
    <trip id="veh7" type="veh_passenger" depart="33.31" departLane="best" from="238460348" to="224623099#3"/>
    <trip id="veh8" type="veh_passenger" depart="38.07" departLane="best" from="-30842825#2" to="224623113#0"/>
    <trip id="veh9" type="veh_passenger" depart="42.83" departLane="best" from="36913445#4" to="-133495462"/>
    <trip id="veh10" type="veh_passenger" depart="47.59" departLane="best" from="36913445#3" to="30810603#0"/>
    <trip id="veh11" type="veh_passenger" depart="52.35" departLane="best" from="-408521141" to="-26807590#10"/>
    <trip id="veh12" type="veh_passenger" depart="57.11" departLane="best" departSpeed="max" from="760889229#0" to="-400478704"/>
    <trip id="veh13" type="veh_passenger" depart="61.87" departLane="best" from="36913445#3" to="30842825#3"/>
    <trip id="veh14" type="veh_passenger" depart="66.63" departLane="best" from="224623092#2" to="764500259"/>
    <trip id="veh15" type="veh_passenger" depart="71.39" departLane="best" from="-688538807" to="224623101#1"/>
    <trip id="veh16" type="veh_passenger" depart="76.14" departLane="best" from="36926700#0" to="224632852"/>
    <trip id="veh17" type="veh_passenger" depart="80.90" departLane="best" departSpeed="max" from="36970818#0" to="224623110#0"/>
    <trip id="veh18" type="veh_passenger" depart="85.66" departLane="best" from="30810603#3" to="-224623095"/>
    <trip id="veh19" type="veh_passenger" depart="90.42" departLane="best" from="-30842825#6" to="-36926699#3"/>
    <trip id="veh20" type="veh_passenger" depart="95.18" departLane="best" from="-224623104#1" to="-31565098"/>
    <trip id="veh21" type="veh_passenger" depart="99.94" departLane="best" from="-224623110#3" to="-36926667#2"/>
    <trip id="veh22" type="veh_passenger" depart="104.70" departLane="best" from="224639758#2" to="-54241771#0"/>
    <trip id="veh23" type="veh_passenger" depart="109.46" departLane="best" from="-661904601" to="-30810603#8"/>
    <trip id="veh24" type="veh_passenger" depart="114.22" departLane="best" from="-36913445#2" to="760886640#1"/>
    <trip id="veh25" type="veh_passenger" depart="118.98" departLane="best" from="238460348" to="224632843"/>
    <trip id="veh26" type="veh_passenger" depart="123.74" departLane="best" from="-26807590#19" to="30842825#3"/>
    <trip id="veh27" type="veh_passenger" depart="128.49" departLane="best" from="-26807590#14" to="-688595931"/>
    <trip id="veh28" type="veh_passenger" depart="133.25" departLane="best" from="794927427" to="23076405#3"/>
    <trip id="veh29" type="veh_passenger" depart="138.01" departLane="best" from="-30842825#6" to="-224623087"/>
    <trip id="veh30" type="veh_passenger" depart="142.77" departLane="best" from="-36982655#1" to="-36913445#2"/>
    <trip id="veh31" type="veh_passenger" depart="147.53" departLane="best" from="-30810823#0" to="760886640#2"/>
    <trip id="veh32" type="veh_passenger" depart="152.29" departLane="best" from="26807590#0" to="-764500259"/>
    <trip id="veh33" type="veh_passenger" depart="157.05" departLane="best" from="54241769" to="172924459#2"/>
    <trip id="veh34" type="veh_passenger" depart="161.81" departLane="best" from="-36913445#1" to="-363460053#1"/>
    <trip id="veh35" type="veh_passenger" depart="166.57" departLane="best" from="224623101#0" to="-36913445#0"/>
    <trip id="veh36" type="veh_passenger" depart="171.33" departLane="best" from="224623109#0" to="46703709#4"/>
    <trip id="veh37" type="veh_passenger" depart="176.08" departLane="best" from="-776784266" to="-30842825#1"/>
    <trip id="veh38" type="veh_passenger" depart="180.84" departLane="best" from="794927429" to="224623085#0"/>
    <trip id="veh39" type="veh_passenger" depart="185.60" departLane="best" from="-224623099#4" to="-688693176"/>
    <trip id="veh40" type="veh_passenger" depart="190.36" departLane="best" from="794927429" to="224623095"/>
    <trip id="veh41" type="veh_passenger" depart="195.12" departLane="best" from="764500259" to="36982659#5"/>
    <trip id="veh42" type="veh_passenger" depart="199.88" departLane="best" from="-224623078#0" to="30810823#3"/>
    <trip id="veh43" type="veh_passenger" depart="204.64" departLane="best" from="26807590#20" to="224623099#0"/>
    <trip id="veh44" type="veh_passenger" depart="209.40" departLane="best" from="-36913445#2" to="23076405#3"/>
    <trip id="veh45" type="veh_passenger" depart="214.16" departLane="best" from="172924459#0" to="760886640#3"/>
    <trip id="veh46" type="veh_passenger" depart="218.92" departLane="best" from="36982659#0" to="-36913445#1"/>
    <trip id="veh47" type="veh_passenger" depart="223.67" departLane="best" from="172952769#4" to="-26807590#3"/>
    <trip id="veh48" type="veh_passenger" depart="228.43" departLane="best" from="54241769" to="408519782"/>
    <trip id="veh49" type="veh_passenger" depart="233.19" departLane="best" from="-36926700#2" to="23076405#3"/>
    <trip id="veh50" type="veh_passenger" depart="237.95" departLane="best" from="224623114#1" to="-26807590#1"/>
    <trip id="veh51" type="veh_passenger" depart="242.71" departLane="best" departSpeed="max" from="363451971#0" to="224623099#1"/>
    <trip id="veh52" type="veh_passenger" depart="247.47" departLane="best" from="-113793002#0" to="-36982659#2"/>
    <trip id="veh53" type="veh_passenger" depart="252.23" departLane="best" from="-224623078#4" to="760886639#1"/>
    <trip id="veh54" type="veh_passenger" depart="256.99" departLane="best" from="36982659#2" to="36926703#0"/>
    <trip id="veh55" type="veh_passenger" depart="261.75" departLane="best" from="-36926703#1" to="-224623099#2"/>
    <trip id="veh56" type="veh_passenger" depart="266.51" departLane="best" from="36982659#2" to="760886640#3"/>
    <trip id="veh57" type="veh_passenger" depart="271.27" departLane="best" from="-224623108" to="172952769#3"/>
    <trip id="veh58" type="veh_passenger" depart="276.02" departLane="best" from="-224623102#0" to="33725145"/>
    <trip id="veh59" type="veh_passenger" depart="280.78" departLane="best" departSpeed="max" from="363451971#0" to="-224632844"/>
    <trip id="veh60" type="veh_passenger" depart="285.54" departLane="best" departSpeed="max" from="172952769#0" to="224623101#1"/>
    <trip id="veh61" type="veh_passenger" depart="290.30" departLane="best" from="-36913445#1" to="408519782"/>
    <trip id="veh62" type="veh_passenger" depart="295.06" departLane="best" from="133488796#2" to="-30810823#0"/>
    <trip id="veh64" type="veh_passenger" depart="304.58" departLane="best" from="-30810603#3" to="-36926703#3"/>
    <trip id="veh65" type="veh_passenger" depart="309.34" departLane="best" from="794927428#1" to="238460348"/>
    <trip id="veh66" type="veh_passenger" depart="314.10" departLane="best" from="157572494#3" to="224623090"/>
    <trip id="veh67" type="veh_passenger" depart="318.86" departLane="best" from="-224632091" to="-30842825#3"/>
    <trip id="veh68" type="veh_passenger" depart="323.61" departLane="best" from="-30842825#7" to="-30842825#1"/>
    <trip id="veh69" type="veh_passenger" depart="328.37" departLane="best" from="-224623102#0" to="23076405#1"/>
    <trip id="veh70" type="veh_passenger" depart="333.13" departLane="best" from="-30842825#6" to="54241771#0"/>
    <trip id="veh71" type="veh_passenger" depart="337.89" departLane="best" departSpeed="max" from="36970818#0" to="-224623102#0"/>
    <trip id="veh73" type="veh_passenger" depart="347.41" departLane="best" from="-30810823#1" to="-224632845"/>
    <trip id="veh74" type="veh_passenger" depart="352.17" departLane="best" from="688595931" to="224623108"/>
    <trip id="veh75" type="veh_passenger" depart="356.93" departLane="best" departSpeed="max" from="172952769#0" to="36913444#1"/>
    <trip id="veh76" type="veh_passenger" depart="361.69" departLane="best" from="-224623110#1" to="133495462"/>
    <trip id="veh77" type="veh_passenger" depart="366.45" departLane="best" from="133488796#2" to="172924459#7"/>
    <trip id="veh78" type="veh_passenger" depart="371.21" departLane="best" from="30842825#3" to="26807590#17"/>
    <trip id="veh79" type="veh_passenger" depart="375.96" departLane="best" from="776784265" to="-224623110#2"/>
    <trip id="veh80" type="veh_passenger" depart="380.72" departLane="best" from="-794927427" to="-408521141"/>
    <trip id="veh81" type="veh_passenger" depart="385.48" departLane="best" departSpeed="max" from="36970818#0" to="-363460053#1"/>
    <trip id="veh83" type="veh_passenger" depart="395.00" departLane="best" from="133488796#2" to="-36926667#2"/>
    <trip id="veh84" type="veh_passenger" depart="399.76" departLane="best" from="-363460053#2" to="688595931"/>
    <trip id="veh85" type="veh_passenger" depart="404.52" departLane="best" from="157572494#6" to="36982659#5"/>
    <trip id="veh87" type="veh_passenger" depart="414.04" departLane="best" from="760889229#1" to="688693176"/>
    <trip id="veh88" type="veh_passenger" depart="418.80" departLane="best" departSpeed="max" from="172952769#0" to="-30810823#1"/>
    <trip id="veh89" type="veh_passenger" depart="423.55" departLane="best" from="-794927427" to="-224623099#2"/>
    <trip id="veh90" type="veh_passenger" depart="428.31" departLane="best" from="-688538807" to="776784265"/>
    <trip id="veh91" type="veh_passenger" depart="433.07" departLane="best" from="-36913445#1" to="36913444#0"/>
    <trip id="veh92" type="veh_passenger" depart="437.83" departLane="best" from="172924459#1" to="133488796#2"/>
    <trip id="veh93" type="veh_passenger" depart="442.59" departLane="best" departSpeed="max" from="760889229#0" to="794927429"/>
    <trip id="veh94" type="veh_passenger" depart="447.35" departLane="best" from="224623099#3" to="30810823#1"/>
    <trip id="veh95" type="veh_passenger" depart="452.11" departLane="best" from="-26807590#10" to="-36926700#2"/>
    <trip id="veh96" type="veh_passenger" depart="456.87" departLane="best" from="760889229#1" to="224623110#1"/>
    <trip id="veh97" type="veh_passenger" depart="461.63" departLane="best" from="224623095" to="324405059#0"/>
    <trip id="veh98" type="veh_passenger" depart="466.39" departLane="best" from="-224623099#2" to="224623110#3"/>
    <trip id="veh99" type="veh_passenger" depart="471.14" departLane="best" from="172952769#4" to="36982659#0"/>
    <trip id="veh100" type="veh_passenger" depart="475.90" departLane="best" from="-26807590#12" to="760886640#3"/>
    <trip id="veh101" type="veh_passenger" depart="480.66" departLane="best" from="224623110#3" to="26807590#17"/>
    <trip id="veh102" type="veh_passenger" depart="485.42" departLane="best" from="133488796#0" to="224623110#3"/>
    <trip id="veh103" type="veh_passenger" depart="490.18" departLane="best" from="224623085#0" to="760886640#1"/>
    <trip id="veh104" type="veh_passenger" depart="494.94" departLane="best" from="-30810603#6" to="30810823#0"/>
    <trip id="veh106" type="veh_passenger" depart="504.46" departLane="best" from="26807590#16" to="-36926700#3"/>
    <trip id="veh107" type="veh_passenger" depart="509.22" departLane="best" from="-36982655#1" to="324405059#1"/>
    <trip id="veh108" type="veh_passenger" depart="513.98" departLane="best" from="-224623102#1" to="172924459#2"/>
    <trip id="veh110" type="veh_passenger" depart="523.49" departLane="best" from="-224623102#1" to="-30810823#0"/>
    <trip id="veh111" type="veh_passenger" depart="528.25" departLane="best" from="-36913445#1" to="760886639#2"/>
    <trip id="veh112" type="veh_passenger" depart="533.01" departLane="best" from="36982659#3" to="408519782"/>
    <trip id="veh113" type="veh_passenger" depart="537.77" departLane="best" from="-54241772" to="-26807590#12"/>
    <trip id="veh114" type="veh_passenger" depart="542.53" departLane="best" from="36926700#1" to="30810603#2"/>
    <trip id="veh115" type="veh_passenger" depart="547.29" departLane="best" from="224623115" to="776784266"/>
    <trip id="veh116" type="veh_passenger" depart="552.05" departLane="best" from="26807590#12" to="760886640#2"/>
    <trip id="veh117" type="veh_passenger" depart="556.81" departLane="best" from="-224632846" to="-224623114#2"/>
    <trip id="veh118" type="veh_passenger" depart="561.57" departLane="best" from="-224623113#1" to="224623102#0"/>
    <trip id="veh119" type="veh_passenger" depart="566.33" departLane="best" from="-36913445#4" to="224632091"/>
    <trip id="veh120" type="veh_passenger" depart="571.08" departLane="best" departSpeed="max" from="172952769#0" to="54241771#0"/>
    <trip id="veh121" type="veh_passenger" depart="575.84" departLane="best" from="133488796#2" to="-36926667#1"/>
    <trip id="veh122" type="veh_passenger" depart="580.60" departLane="best" from="-113793002#1" to="36913442#0"/>
    <trip id="veh123" type="veh_passenger" depart="585.36" departLane="best" from="31565098" to="224623101#1"/>
    <trip id="veh124" type="veh_passenger" depart="590.12" departLane="best" from="133489253#1" to="-224623078#0"/>
    <trip id="veh125" type="veh_passenger" depart="594.88" departLane="best" from="36926700#2" to="224623110#2"/>
    <trip id="veh127" type="veh_passenger" depart="604.40" departLane="best" from="-36926703#2" to="46703709#5"/>
    <trip id="veh128" type="veh_passenger" depart="609.16" departLane="best" from="36913444#0" to="36982659#5"/>
    <trip id="veh129" type="veh_passenger" depart="613.92" departLane="best" from="46703709#0" to="-30810603#8"/>
    <trip id="veh130" type="veh_passenger" depart="618.68" departLane="best" from="-363460053#2" to="-224623112"/>
    <trip id="veh131" type="veh_passenger" depart="623.43" departLane="best" from="-794927428#1" to="224632852"/>
    <trip id="veh132" type="veh_passenger" depart="628.19" departLane="best" from="-26807590#10" to="760886639#1"/>
    <trip id="veh133" type="veh_passenger" depart="632.95" departLane="best" from="36970818#1" to="764502951#0"/>
    <trip id="veh134" type="veh_passenger" depart="637.71" departLane="best" from="36926667#0" to="408519782"/>
    <trip id="veh135" type="veh_passenger" depart="642.47" departLane="best" from="-224623084" to="30842825#7"/>
    <trip id="veh136" type="veh_passenger" depart="647.23" departLane="best" from="-39022397" to="760886639#1"/>
    <trip id="veh138" type="veh_passenger" depart="656.75" departLane="best" from="-30842825#2" to="36926699#3"/>
    <trip id="veh139" type="veh_passenger" depart="661.51" departLane="best" from="172924459#3" to="-36926703#0"/>
    <trip id="veh140" type="veh_passenger" depart="666.27" departLane="best" from="36913444#0" to="-30842825#6"/>
    <trip id="veh141" type="veh_passenger" depart="671.02" departLane="best" from="-224623078#5" to="-30810603#0"/>
    <trip id="veh143" type="veh_passenger" depart="680.54" departLane="best" from="760889229#1" to="-36926667#2"/>
    <trip id="veh144" type="veh_passenger" depart="685.30" departLane="best" from="764502951#1-AddedOnRampEdge" to="224623099#0"/>
    <trip id="veh145" type="veh_passenger" depart="690.06" departLane="best" from="760886639#0" to="-224623114#2"/>
    <trip id="veh146" type="veh_passenger" depart="694.82" departLane="best" from="764500259" to="-26807590#3"/>
    <trip id="veh147" type="veh_passenger" depart="699.58" departLane="best" departSpeed="max" from="760889229#0" to="-36913445#2"/>
    <trip id="veh148" type="veh_passenger" depart="704.34" departLane="best" from="-224623113#1" to="157572494#2"/>
    <trip id="veh149" type="veh_passenger" depart="709.10" departLane="best" from="224623114#0" to="224623085#0"/>
    <trip id="veh150" type="veh_passenger" depart="713.86" departLane="best" from="-760886639#0" to="224623110#0"/>
    <trip id="veh151" type="veh_passenger" depart="718.61" departLane="best" from="-36913442#1" to="30810603#6"/>
    <trip id="veh154" type="veh_passenger" depart="732.89" departLane="best" from="-54241771#0" to="-224623102#0"/>
    <trip id="veh155" type="veh_passenger" depart="737.65" departLane="best" from="26807590#13" to="-36982659#5"/>
    <trip id="veh156" type="veh_passenger" depart="742.41" departLane="best" from="30810823#1" to="-36926700#3"/>
    <trip id="veh157" type="veh_passenger" depart="747.17" departLane="best" from="-36926703#2" to="-794927429"/>
    <trip id="veh158" type="veh_passenger" depart="751.93" departLane="best" from="-794927427" to="-36926700#1"/>
    <trip id="veh159" type="veh_passenger" depart="756.69" departLane="best" from="760886639#0" to="26807590#19"/>
    <trip id="veh160" type="veh_passenger" depart="761.45" departLane="best" from="-113793002#0" to="-36926699#2"/>
    <trip id="veh161" type="veh_passenger" depart="766.21" departLane="best" from="133495462" to="224623110#1"/>
    <trip id="veh162" type="veh_passenger" depart="770.96" departLane="best" from="157572494#5" to="-30810823#1"/>
    <trip id="veh163" type="veh_passenger" depart="775.72" departLane="best" departSpeed="max" from="172952769#0" to="54241769"/>
    <trip id="veh164" type="veh_passenger" depart="780.48" departLane="best" from="224639758#1" to="-400478704"/>
    <trip id="veh165" type="veh_passenger" depart="785.24" departLane="best" from="36926667#3" to="324405059#1"/>
    <trip id="veh166" type="veh_passenger" depart="790.00" departLane="best" from="26807590#16" to="-30842825#3"/>
    <trip id="veh167" type="veh_passenger" depart="794.76" departLane="best" from="-30810603#3" to="-224623084"/>
    <trip id="veh168" type="veh_passenger" depart="799.52" departLane="best" from="-363460053#0" to="172924459#7"/>
    <trip id="veh169" type="veh_passenger" depart="804.28" departLane="best" from="113793002#0" to="23076405#0"/>
    <trip id="veh170" type="veh_passenger" depart="809.04" departLane="best" from="-30810603#1" to="26807590#9"/>
    <trip id="veh171" type="veh_passenger" depart="813.80" departLane="best" from="172952769#2" to="-33725145"/>
    <trip id="veh172" type="veh_passenger" depart="818.55" departLane="best" from="26807590#0" to="-133495462"/>
    <trip id="veh173" type="veh_passenger" depart="823.31" departLane="best" from="324405059#1" to="363460053#2"/>
    <trip id="veh174" type="veh_passenger" depart="828.07" departLane="best" from="-224623113#0" to="133489253#0"/>
    <trip id="veh175" type="veh_passenger" depart="832.83" departLane="best" from="-26807590#20" to="760886640#3"/>
    <trip id="veh176" type="veh_passenger" depart="837.59" departLane="best" from="224623078#5" to="-224623097#1"/>
    <trip id="veh177" type="veh_passenger" depart="842.35" departLane="best" from="-363460053#2" to="36982656#1"/>
    <trip id="veh178" type="veh_passenger" depart="847.11" departLane="best" from="26807590#14" to="776784266"/>
    <trip id="veh179" type="veh_passenger" depart="851.87" departLane="best" from="224623110#3" to="760886640#3"/>
    <trip id="veh180" type="veh_passenger" depart="856.63" departLane="best" from="400478704" to="224632844"/>
    <trip id="veh181" type="veh_passenger" depart="861.39" departLane="best" from="30810823#1" to="224623078#5"/>
    <trip id="veh182" type="veh_passenger" depart="866.15" departLane="best" from="36926700#0" to="224623101#0"/>
    <trip id="veh184" type="veh_passenger" depart="875.66" departLane="best" departSpeed="max" from="172952769#0" to="-36913442#3"/>
    <trip id="veh185" type="veh_passenger" depart="880.42" departLane="best" from="-363460053#1" to="23076405#3"/>
    <trip id="veh186" type="veh_passenger" depart="885.18" departLane="best" departSpeed="max" from="363451971#0" to="224623092#0"/>
    <trip id="veh187" type="veh_passenger" depart="889.94" departLane="best" from="-30842825#7" to="26807590#8"/>
    <trip id="veh188" type="veh_passenger" depart="894.70" departLane="best" from="-794927429" to="224623099#2"/>
    <trip id="veh189" type="veh_passenger" depart="899.46" departLane="best" from="113793002#1" to="-30810603#7"/>
    <trip id="veh190" type="veh_passenger" depart="904.22" departLane="best" from="133488796#1" to="54241770"/>
    <trip id="veh191" type="veh_passenger" depart="908.98" departLane="best" departSpeed="max" from="36970818#0" to="363460053#1"/>
    <trip id="veh192" type="veh_passenger" depart="913.74" departLane="best" from="-688595931" to="-133495462"/>
    <trip id="veh193" type="veh_passenger" depart="918.49" departLane="best" from="-46703709#3" to="324405059#1"/>
    <trip id="veh194" type="veh_passenger" depart="923.25" departLane="best" departSpeed="max" from="36970818#0" to="760886640#3"/>
    <trip id="veh195" type="veh_passenger" depart="928.01" departLane="best" from="133488796#0" to="324405059#0"/>
    <trip id="veh196" type="veh_passenger" depart="932.77" departLane="best" from="224623097#1" to="224632090"/>
    <trip id="veh197" type="veh_passenger" depart="937.53" departLane="best" from="-400478704" to="26807590#2"/>
    <trip id="veh198" type="veh_passenger" depart="942.29" departLane="best" from="-794927428#0" to="-26807590#15"/>
    <trip id="veh199" type="veh_passenger" depart="947.05" departLane="best" departSpeed="max" from="172952769#0" to="-224632843"/>
    <trip id="veh200" type="veh_passenger" depart="951.81" departLane="best" from="224632843" to="-224623085#0"/>
    <trip id="veh201" type="veh_passenger" depart="956.57" departLane="best" from="-764500259" to="224623104#2"/>
    <trip id="veh202" type="veh_passenger" depart="961.33" departLane="best" from="-224623085#0" to="23076405#3"/>
    <trip id="veh203" type="veh_passenger" depart="966.08" departLane="best" from="-224632852" to="172924459#3"/>
    <trip id="veh204" type="veh_passenger" depart="970.84" departLane="best" from="-224623097#1" to="-688538807"/>
    <trip id="veh205" type="veh_passenger" depart="975.60" departLane="best" departSpeed="max" from="363451971#0" to="-688538807"/>
    <trip id="veh206" type="veh_passenger" depart="980.36" departLane="best" from="324405059#1" to="36926703#1"/>
    <trip id="veh207" type="veh_passenger" depart="985.12" departLane="best" from="-36913442#0" to="-224623104#2"/>
    <trip id="veh208" type="veh_passenger" depart="989.88" departLane="best" from="-224623078#4" to="224623099#1"/>
    <trip id="veh210" type="veh_passenger" depart="999.40" departLane="best" from="760886640#1" to="-30810603#3"/>
</routes>
