<?xml version="1.0" encoding="UTF-8"?>

<!-- generated on Mon Nov 23 19:26:23 2020 by Eclipse SUMO duarouter Version 1.7.0
<configuration xmlns:xsi="http://www.w3.org/2001/XMLSchema-instance" xsi:noNamespaceSchemaLocation="http://sumo.dlr.de/xsd/duarouterConfiguration.xsd">

    <input>
        <net-file value="/home/manas/Sumo/2020-11-23-19-26-19/osm.net.xml"/>
        <route-files value="/home/manas/Sumo/2020-11-23-19-26-19/osm.passenger.trips.xml"/>
    </input>

    <output>
        <output-file value="/home/manas/Sumo/2020-11-23-19-26-19/osm.passenger.trips.xml.tmp"/>
        <write-trips value="true"/>
    </output>

    <time>
        <begin value="0"/>
        <end value="3600"/>
    </time>

    <report>
        <no-warnings value="true"/>
        <ignore-errors value="true"/>
        <no-step-log value="true"/>
    </report>

</configuration>
-->

<routes xmlns:xsi="http://www.w3.org/2001/XMLSchema-instance" xsi:noNamespaceSchemaLocation="http://sumo.dlr.de/xsd/routes_file.xsd">
    <vType id="veh_passenger" vClass="passenger"/>
    <trip id="veh0" type="veh_passenger" depart="0.00" departLane="best" from="317037267#1" to="-240494077#0"/>
    <trip id="veh1" type="veh_passenger" depart="2.32" departLane="best" from="-504166949#1" to="-317037324#1"/>
    <trip id="veh2" type="veh_passenger" depart="4.64" departLane="best" from="336970654#2" to="317037333#2"/>
    <trip id="veh3" type="veh_passenger" depart="6.96" departLane="best" from="86812095#4" to="-316184420"/>
    <trip id="veh4" type="veh_passenger" depart="9.28" departLane="best" from="-86812129#2" to="-240494111"/>
    <trip id="veh5" type="veh_passenger" depart="11.61" departLane="best" from="-317037320" to="316184405#2"/>
    <trip id="veh6" type="veh_passenger" depart="13.93" departLane="best" from="-240494077#1" to="-317037269#1"/>
    <trip id="veh7" type="veh_passenger" depart="16.25" departLane="best" from="317037285#0" to="316185718#2"/>
    <trip id="veh8" type="veh_passenger" depart="18.57" departLane="best" from="-317037324#0" to="317035959"/>
    <trip id="veh9" type="veh_passenger" depart="20.89" departLane="best" from="504166957#1" to="-204122925#1"/>
    <trip id="veh10" type="veh_passenger" depart="23.21" departLane="best" from="504166957#0" to="336970648#0"/>
    <trip id="veh11" type="veh_passenger" depart="25.53" departLane="best" from="-757854086" to="-317035997"/>
    <trip id="veh12" type="veh_passenger" depart="27.85" departLane="best" departSpeed="max" from="86812108#0" to="-75242554#1"/>
    <trip id="veh13" type="veh_passenger" depart="30.18" departLane="best" from="-316184433" to="-316185718#0"/>
    <trip id="veh14" type="veh_passenger" depart="32.50" departLane="best" from="504166957#0" to="336970648#5"/>
    <trip id="veh15" type="veh_passenger" depart="34.82" departLane="best" from="316184433" to="86812124#0"/>
    <trip id="veh16" type="veh_passenger" depart="37.14" departLane="best" from="61213636" to="317036058#1"/>
    <trip id="veh17" type="veh_passenger" depart="39.46" departLane="best" from="86812088#1" to="317035907#0"/>
    <trip id="veh18" type="veh_passenger" depart="41.78" departLane="best" from="336970648#1" to="-316184400#2"/>
    <trip id="veh19" type="veh_passenger" depart="44.10" departLane="best" from="-317037333#1" to="-504166957#0"/>
    <trip id="veh20" type="veh_passenger" depart="46.42" departLane="best" from="-316184418" to="-317037334#0"/>
    <trip id="veh21" type="veh_passenger" depart="48.74" departLane="best" from="-316185718#2" to="-504166950"/>
    <trip id="veh22" type="veh_passenger" depart="51.07" departLane="best" from="317037265" to="-86812095#11"/>
    <trip id="veh23" type="veh_passenger" depart="53.39" departLane="best" from="-336970656#3" to="86812099#1"/>
    <trip id="veh24" type="veh_passenger" depart="55.71" departLane="best" from="-317036054#1" to="336970648#5"/>
    <trip id="veh25" type="veh_passenger" depart="58.03" departLane="best" from="-317036044#0" to="-86812095#7"/>
    <trip id="veh26" type="veh_passenger" depart="60.35" departLane="best" from="86812128#2" to="317037267#1"/>
    <trip id="veh27" type="veh_passenger" depart="62.67" departLane="best" from="316185725" to="336970647#0"/>
    <trip id="veh28" type="veh_passenger" depart="64.99" departLane="best" from="61215436#2" to="336970655#1"/>
    <trip id="veh29" type="veh_passenger" depart="67.31" departLane="best" from="-317037333#2" to="-316184392#0"/>
    <trip id="veh30" type="veh_passenger" depart="69.63" departLane="best" from="-61213636" to="-336970656#4"/>
    <trip id="veh31" type="veh_passenger" depart="71.96" departLane="best" from="317037285#3" to="-86812099#1"/>
    <trip id="veh32" type="veh_passenger" depart="74.28" departLane="best" from="86812099#1" to="204122925#6"/>
    <trip id="veh33" type="veh_passenger" depart="76.60" departLane="best" from="-336970656#2" to="-336970654#3"/>
    <trip id="veh34" type="veh_passenger" depart="78.92" departLane="best" from="316185738#0" to="-336970656#1"/>
    <trip id="veh35" type="veh_passenger" depart="81.24" departLane="best" from="317035918#1" to="86812092#0"/>
    <trip id="veh36" type="veh_passenger" depart="83.56" departLane="best" from="86812129#3" to="316184405#4"/>
    <trip id="veh37" type="veh_passenger" depart="85.88" departLane="best" from="-316185719#1" to="317036126#1"/>
    <trip id="veh38" type="veh_passenger" depart="88.20" departLane="best" from="504166949#1" to="-86812129#2"/>
    <trip id="veh39" type="veh_passenger" depart="90.53" departLane="best" from="-316184405#3" to="-86812095#8"/>
    <trip id="veh40" type="veh_passenger" depart="92.85" departLane="best" from="86812129#3" to="316184420"/>
    <trip id="veh41" type="veh_passenger" depart="95.17" departLane="best" from="86812124#0" to="61215436#1"/>
    <trip id="veh42" type="veh_passenger" depart="97.49" departLane="best" from="-204122925#4" to="336970648#4"/>
    <trip id="veh43" type="veh_passenger" depart="99.81" departLane="best" from="317037334#1" to="316184433"/>
    <trip id="veh44" type="veh_passenger" depart="102.13" departLane="best" from="-336970656#3" to="317037269#0"/>
    <trip id="veh45" type="veh_passenger" depart="104.45" departLane="best" from="-316185719#2" to="204122924#0"/>
    <trip id="veh46" type="veh_passenger" depart="106.77" departLane="best" from="204122925#4" to="86812106#0"/>
    <trip id="veh47" type="veh_passenger" depart="109.09" departLane="best" from="86812092#0" to="-336970656#2"/>
    <trip id="veh48" type="veh_passenger" depart="111.42" departLane="best" from="316184405#0" to="-317036101"/>
    <trip id="veh49" type="veh_passenger" depart="113.74" departLane="best" from="86812099#0" to="75242554#1"/>
    <trip id="veh50" type="veh_passenger" depart="116.06" departLane="best" from="-61213633#0" to="317037267#1"/>
    <trip id="veh51" type="veh_passenger" depart="118.38" departLane="best" from="317036044#1" to="-317035970#2"/>
    <trip id="veh52" type="veh_passenger" depart="120.70" departLane="best" from="336970656#0" to="316185712"/>
    <trip id="veh53" type="veh_passenger" depart="123.02" departLane="best" from="336970668#1" to="316184420"/>
    <trip id="veh54" type="veh_passenger" depart="125.34" departLane="best" from="-144942806#0" to="-61215436#1"/>
    <trip id="veh55" type="veh_passenger" depart="127.66" departLane="best" from="-204122925#7" to="86812098#1"/>
    <trip id="veh56" type="veh_passenger" depart="129.98" departLane="best" from="86812095#1" to="504166957#1"/>
    <trip id="veh57" type="veh_passenger" depart="132.31" departLane="best" from="-61213633#4" to="-316184405#1"/>
    <trip id="veh58" type="veh_passenger" depart="134.63" departLane="best" from="86812092#1" to="86812104"/>
    <trip id="veh59" type="veh_passenger" depart="136.95" departLane="best" from="-316184420" to="316184400#0"/>
    <trip id="veh60" type="veh_passenger" depart="139.27" departLane="best" from="-316184406#1" to="336970654#3"/>
    <trip id="veh61" type="veh_passenger" depart="141.59" departLane="best" from="336970656#1" to="-316185749#1"/>
    <trip id="veh62" type="veh_passenger" depart="143.91" departLane="best" from="240494111" to="316185719#0"/>
    <trip id="veh63" type="veh_passenger" depart="146.23" departLane="best" from="-336970656#2" to="75242557"/>
    <trip id="veh64" type="veh_passenger" depart="148.55" departLane="best" from="-86812129#2" to="-317037295"/>
    <trip id="veh65" type="veh_passenger" depart="150.88" departLane="best" from="316185712" to="336970648#5"/>
    <trip id="veh66" type="veh_passenger" depart="153.20" departLane="best" from="-317037269#2" to="-61213636"/>
    <trip id="veh67" type="veh_passenger" depart="155.52" departLane="best" from="86812129#2" to="317037285#0"/>
    <trip id="veh68" type="veh_passenger" depart="157.84" departLane="best" from="204122924#1" to="316184411#0"/>
    <trip id="veh69" type="veh_passenger" depart="160.16" departLane="best" from="-316185738#1" to="-317037333#0"/>
    <trip id="veh70" type="veh_passenger" depart="162.48" departLane="best" from="-75242554#1" to="317035959"/>
    <trip id="veh71" type="veh_passenger" depart="164.80" departLane="best" from="-316184406#2" to="317036126#2"/>
    <trip id="veh72" type="veh_passenger" depart="167.12" departLane="best" from="-317037333#2" to="86812095#10"/>
    <trip id="veh73" type="veh_passenger" depart="169.44" departLane="best" from="86812088#0" to="-316184406#1"/>
    <trip id="veh74" type="veh_passenger" depart="171.77" departLane="best" from="-336970654#0" to="317037324#1"/>
    <trip id="veh75" type="veh_passenger" depart="174.09" departLane="best" from="-317037303" to="-316185760"/>
    <trip id="veh76" type="veh_passenger" depart="176.41" departLane="best" from="240494086" to="336970655#4"/>
    <trip id="veh77" type="veh_passenger" depart="178.73" departLane="best" from="504166957#0" to="-317037267#0"/>
    <trip id="veh78" type="veh_passenger" depart="181.05" departLane="best" from="-316185718#0" to="144942806#1"/>
    <trip id="veh79" type="veh_passenger" depart="183.37" departLane="best" from="-86812129#3" to="240494077#1"/>
    <trip id="veh80" type="veh_passenger" depart="185.69" departLane="best" from="336970651" to="317037333#1"/>
    <trip id="veh81" type="veh_passenger" depart="188.01" departLane="best" from="86812125" to="-316185718#1"/>
    <trip id="veh82" type="veh_passenger" depart="190.34" departLane="best" from="-86812100" to="-757854086"/>
    <trip id="veh83" type="veh_passenger" depart="192.66" departLane="best" from="86812088#1" to="-336970654#4"/>
    <trip id="veh84" type="veh_passenger" depart="194.98" departLane="best" from="-317037267#0" to="204122925#2"/>
    <trip id="veh85" type="veh_passenger" depart="197.30" departLane="best" from="-86812129#2" to="-504166950"/>
    <trip id="veh86" type="veh_passenger" depart="199.62" departLane="best" from="-336970654#5" to="86812095#8"/>
    <trip id="veh87" type="veh_passenger" depart="201.94" departLane="best" from="204122924#2" to="61215436#1"/>
    <trip id="veh88" type="veh_passenger" depart="204.26" departLane="best" from="316185719#0" to="-316184401#1"/>
    <trip id="veh89" type="veh_passenger" depart="206.58" departLane="best" from="86812129#4" to="61213633#0"/>
    <trip id="veh90" type="veh_passenger" depart="208.90" departLane="best" from="86812110" to="86812095#9"/>
    <trip id="veh91" type="veh_passenger" depart="211.23" departLane="best" from="75242554#1" to="-317036044#1"/>
    <trip id="veh92" type="veh_passenger" depart="213.55" departLane="best" from="316184400#0" to="-317037303"/>
    <trip id="veh93" type="veh_passenger" depart="215.87" departLane="best" from="-86812100" to="-316184405#1"/>
    <trip id="veh94" type="veh_passenger" depart="218.19" departLane="best" from="-86812095#7" to="86812125"/>
    <trip id="veh95" type="veh_passenger" depart="220.51" departLane="best" from="-336970656#2" to="336970655#4"/>
    <trip id="veh96" type="veh_passenger" depart="222.83" departLane="best" from="204122925#4" to="-86812129#2"/>
    <trip id="veh97" type="veh_passenger" depart="225.15" departLane="best" departSpeed="max" from="86812108#0" to="86812129#2"/>
    <trip id="veh98" type="veh_passenger" depart="227.47" departLane="best" from="316185719#2" to="336970648#4"/>
    <trip id="veh99" type="veh_passenger" depart="229.79" departLane="best" from="-317035997" to="-61213632"/>
    <trip id="veh100" type="veh_passenger" depart="232.12" departLane="best" from="86812110" to="317035907#1"/>
    <trip id="veh101" type="veh_passenger" depart="234.44" departLane="best" from="316185718#0" to="336970650"/>
    <trip id="veh102" type="veh_passenger" depart="236.76" departLane="best" from="-316184405#0" to="317035918#1"/>
    <trip id="veh103" type="veh_passenger" depart="239.08" departLane="best" from="316184405#1" to="61213636"/>
    <trip id="veh104" type="veh_passenger" depart="241.40" departLane="best" from="-316184419#0" to="-317036126#2"/>
    <trip id="veh105" type="veh_passenger" depart="243.72" departLane="best" from="317035970#2" to="317037333#2"/>
    <trip id="veh106" type="veh_passenger" depart="246.04" departLane="best" from="-317037334#1" to="-316185738#1"/>
    <trip id="veh107" type="veh_passenger" depart="248.36" departLane="best" from="86812095#4" to="-336970654#3"/>
    <trip id="veh108" type="veh_passenger" depart="250.69" departLane="best" from="317035970#1" to="317036058#1"/>
    <trip id="veh109" type="veh_passenger" depart="253.01" departLane="best" from="-86812129#1" to="317035918#1"/>
    <trip id="veh110" type="veh_passenger" depart="255.33" departLane="best" from="316184418" to="86812099#0"/>
    <trip id="veh111" type="veh_passenger" depart="257.65" departLane="best" from="-317037285#1" to="336970648#3"/>
    <trip id="veh112" type="veh_passenger" depart="259.97" departLane="best" from="-336970654#0" to="-86812099#1"/>
    <trip id="veh113" type="veh_passenger" depart="262.29" departLane="best" from="317037333#0" to="-61213633#1"/>
    <trip id="veh114" type="veh_passenger" depart="264.61" departLane="best" from="-61215436#0" to="336970651"/>
    <trip id="veh115" type="veh_passenger" depart="266.93" departLane="best" from="-316184406#2" to="204122925#6"/>
    <trip id="veh116" type="veh_passenger" depart="269.25" departLane="best" from="-316184411#0" to="-317037303"/>
    <trip id="veh117" type="veh_passenger" depart="271.58" departLane="best" from="-336970656#2" to="86812098#2"/>
    <trip id="veh118" type="veh_passenger" depart="273.90" departLane="best" from="86812095#1" to="86812087"/>
    <trip id="veh119" type="veh_passenger" depart="276.22" departLane="best" from="-86812095#3" to="-317036016"/>
    <trip id="veh120" type="veh_passenger" depart="278.54" departLane="best" from="61215436#0" to="336970648#1"/>
    <trip id="veh121" type="veh_passenger" depart="280.86" departLane="best" from="317036054#0" to="86812128#0"/>
    <trip id="veh122" type="veh_passenger" depart="283.18" departLane="best" from="317037285#2" to="-204122925#2"/>
    <trip id="veh123" type="veh_passenger" depart="285.50" departLane="best" from="61213633#2" to="-61213633#0"/>
    <trip id="veh124" type="veh_passenger" depart="287.82" departLane="best" from="317037319" to="86812099#2"/>
    <trip id="veh125" type="veh_passenger" depart="290.14" departLane="best" from="-504166949#0" to="317036032"/>
    <trip id="veh126" type="veh_passenger" depart="292.47" departLane="best" from="336970648#4" to="-317037285#0"/>
    <trip id="veh127" type="veh_passenger" depart="294.79" departLane="best" from="317037265" to="-336970656#2"/>
    <trip id="veh128" type="veh_passenger" depart="297.11" departLane="best" from="316184400#1" to="86812095#10"/>
    <trip id="veh129" type="veh_passenger" depart="299.43" departLane="best" from="75242554#1" to="-316184433"/>
    <trip id="veh130" type="veh_passenger" depart="301.75" departLane="best" from="-86812129#3" to="-504166949#1"/>
    <trip id="veh131" type="veh_passenger" depart="304.07" departLane="best" from="-144942806#1" to="336970654#7"/>
    <trip id="veh132" type="veh_passenger" depart="306.39" departLane="best" from="317037267#0" to="-336970656#1"/>
    <trip id="veh133" type="veh_passenger" depart="308.71" departLane="best" from="336970654#4" to="316185719#1"/>
    <trip id="veh134" type="veh_passenger" depart="311.04" departLane="best" from="-86812129#4" to="-204122925#3"/>
    <trip id="veh135" type="veh_passenger" depart="313.36" departLane="best" from="-316184411#0" to="86812088#0"/>
    <trip id="veh136" type="veh_passenger" depart="315.68" departLane="best" from="86812098#0" to="316185718#2"/>
    <trip id="veh137" type="veh_passenger" depart="318.00" departLane="best" from="61215436#0" to="317035918#0"/>
    <trip id="veh138" type="veh_passenger" depart="320.32" departLane="best" from="-317035970#0" to="-316185749#0"/>
    <trip id="veh139" type="veh_passenger" depart="322.64" departLane="best" from="-61213633#4" to="86812092#0"/>
    <trip id="veh140" type="veh_passenger" depart="324.96" departLane="best" from="504166950" to="61215436#1"/>
    <trip id="veh141" type="veh_passenger" depart="327.28" departLane="best" from="86812095#7" to="-317037285#3"/>
    <trip id="veh142" type="veh_passenger" depart="329.60" departLane="best" from="-336970654#5" to="-316185718#2"/>
    <trip id="veh143" type="veh_passenger" depart="331.93" departLane="best" from="336970668#1" to="86812088#1"/>
    <trip id="veh144" type="veh_passenger" depart="334.25" departLane="best" from="-86812105#0" to="317036100"/>
    <trip id="veh145" type="veh_passenger" depart="336.57" departLane="best" from="-317035997" to="86812098#1"/>
    <trip id="veh146" type="veh_passenger" depart="338.89" departLane="best" from="86812088#2" to="86812124#1"/>
    <trip id="veh147" type="veh_passenger" depart="341.21" departLane="best" from="504166958" to="86812088#0"/>
    <trip id="veh148" type="veh_passenger" depart="343.53" departLane="best" from="-240494077#0" to="336970648#5"/>
    <trip id="veh149" type="veh_passenger" depart="345.85" departLane="best" from="-75242554#0" to="86812098#1"/>
    <trip id="veh150" type="veh_passenger" depart="348.17" departLane="best" from="504166954#1" to="61215436#2"/>
    <trip id="veh151" type="veh_passenger" depart="350.49" departLane="best" from="504166958" to="-336970656#3"/>
    <trip id="veh152" type="veh_passenger" depart="352.82" departLane="best" from="336970669#2" to="-316185719#1"/>
    <trip id="veh153" type="veh_passenger" depart="355.14" departLane="best" from="86812091#0" to="61215436#1"/>
    <trip id="veh154" type="veh_passenger" depart="357.46" departLane="best" from="-317037324#1" to="504166949#1"/>
    <trip id="veh155" type="veh_passenger" depart="359.78" departLane="best" from="204122925#7" to="-61213633#3"/>
    <trip id="veh156" type="veh_passenger" depart="362.10" departLane="best" from="504166950" to="-317037333#1"/>
    <trip id="veh157" type="veh_passenger" depart="364.42" departLane="best" from="-240494077#0" to="-317037267#1"/>
    <trip id="veh158" type="veh_passenger" depart="366.74" departLane="best" from="86812108#2" to="-504166950"/>
    <trip id="veh159" type="veh_passenger" depart="369.06" departLane="best" from="317037269#0" to="-86812099#3"/>
    <trip id="veh160" type="veh_passenger" depart="371.39" departLane="best" from="86812124#2" to="316184433"/>
    <trip id="veh161" type="veh_passenger" depart="373.71" departLane="best" departSpeed="max" from="86812108#0" to="-316185731"/>
    <trip id="veh162" type="veh_passenger" depart="376.03" departLane="best" from="86812108#1" to="-336970656#3"/>
    <trip id="veh163" type="veh_passenger" depart="378.35" departLane="best" from="-316185719#1" to="204122924#0"/>
    <trip id="veh164" type="veh_passenger" depart="380.67" departLane="best" from="336970651" to="-61213636"/>
    <trip id="veh165" type="veh_passenger" depart="382.99" departLane="best" from="317036032" to="316184406#0"/>
    <trip id="veh166" type="veh_passenger" depart="385.31" departLane="best" from="-86812098#0" to="316185760"/>
    <trip id="veh167" type="veh_passenger" depart="387.63" departLane="best" from="-336970654#7" to="336970648#2"/>
    <trip id="veh168" type="veh_passenger" depart="389.95" departLane="best" from="-144942806#0" to="86812095#9"/>
    <trip id="veh169" type="veh_passenger" depart="392.28" departLane="best" from="316185712" to="336970648#4"/>
    <trip id="veh170" type="veh_passenger" depart="394.60" departLane="best" from="336970654#5" to="317037333#0"/>
    <trip id="veh171" type="veh_passenger" depart="396.92" departLane="best" from="-86812095#11" to="-316184406#1"/>
    <trip id="veh172" type="veh_passenger" depart="399.24" departLane="best" from="317037320" to="-75242554#0"/>
    <trip id="veh173" type="veh_passenger" depart="401.56" departLane="best" from="-61213636" to="61213633#5"/>
    <trip id="veh174" type="veh_passenger" depart="403.88" departLane="best" from="336970648#4" to="-61213633#1"/>
    <trip id="veh175" type="veh_passenger" depart="406.20" departLane="best" from="-61213633#5" to="-86812105#1"/>
    <trip id="veh176" type="veh_passenger" depart="408.52" departLane="best" from="-86812100" to="-61213632"/>
    <trip id="veh177" type="veh_passenger" depart="410.85" departLane="best" from="-316185749#0" to="-86812129#1"/>
    <trip id="veh178" type="veh_passenger" depart="413.17" departLane="best" departSpeed="max" from="86812108#0" to="317037333#2"/>
    <trip id="veh179" type="veh_passenger" depart="415.49" departLane="best" from="86812095#9" to="317036054#1"/>
    <trip id="veh180" type="veh_passenger" depart="417.81" departLane="best" from="-61213633#1" to="316185718#3"/>
    <trip id="veh182" type="veh_passenger" depart="422.45" departLane="best" from="144942806#0" to="317035907#1"/>
    <trip id="veh183" type="veh_passenger" depart="424.77" departLane="best" from="317037285#3" to="240494077#0"/>
    <trip id="veh184" type="veh_passenger" depart="427.09" departLane="best" from="204122924#2" to="-317037303"/>
    <trip id="veh185" type="veh_passenger" depart="429.41" departLane="best" from="240494086" to="86812092#1"/>
    <trip id="veh186" type="veh_passenger" depart="431.74" departLane="best" from="504166950" to="-317036054#1"/>
    <trip id="veh187" type="veh_passenger" depart="434.06" departLane="best" from="-316184420" to="316184406#2"/>
    <trip id="veh188" type="veh_passenger" depart="436.38" departLane="best" from="317037259" to="-75242554#1"/>
    <trip id="veh189" type="veh_passenger" depart="438.70" departLane="best" from="61213633#2" to="336970651"/>
    <trip id="veh190" type="veh_passenger" depart="441.02" departLane="best" from="-317037269#2" to="-240494077#0"/>
    <trip id="veh191" type="veh_passenger" depart="443.34" departLane="best" from="-336970654#2" to="240494111"/>
    <trip id="veh192" type="veh_passenger" depart="445.66" departLane="best" from="75242557" to="-316184406#2"/>
    <trip id="veh193" type="veh_passenger" depart="447.98" departLane="best" from="-86812128#0" to="317036126#2"/>
    <trip id="veh194" type="veh_passenger" depart="450.30" departLane="best" from="-317037267#1" to="336970647#2"/>
    <trip id="veh195" type="veh_passenger" depart="452.63" departLane="best" from="316184401#1" to="-336970654#2"/>
    <trip id="veh196" type="veh_passenger" depart="454.95" departLane="best" from="317037285#3" to="-204122925#1"/>
    <trip id="veh197" type="veh_passenger" depart="457.27" departLane="best" from="-316185719#0" to="-86812129#3"/>
    <trip id="veh198" type="veh_passenger" depart="459.59" departLane="best" from="-317036058#1" to="86812106#2"/>
    <trip id="veh199" type="veh_passenger" depart="461.91" departLane="best" from="316184411#0" to="-316184401#0"/>
    <trip id="veh200" type="veh_passenger" depart="464.23" departLane="best" from="-336970654#4" to="61213633#5"/>
    <trip id="veh201" type="veh_passenger" depart="466.55" departLane="best" from="204122925#5" to="336970668#1"/>
    <trip id="veh202" type="veh_passenger" depart="468.87" departLane="best" from="317037324#0" to="86812128#0"/>
    <trip id="veh203" type="veh_passenger" depart="471.20" departLane="best" from="317035970#2" to="86812105#1"/>
    <trip id="veh204" type="veh_passenger" depart="473.52" departLane="best" from="86812095#4" to="317036054#0"/>
    <trip id="veh205" type="veh_passenger" depart="475.84" departLane="best" from="336970648#4" to="316184405#2"/>
    <trip id="veh206" type="veh_passenger" depart="478.16" departLane="best" from="61213636" to="316185718#3"/>
    <trip id="veh207" type="veh_passenger" depart="480.48" departLane="best" from="86812095#7" to="336970648#5"/>
    <trip id="veh208" type="veh_passenger" depart="482.80" departLane="best" from="240494111" to="-336970656#0"/>
    <trip id="veh209" type="veh_passenger" depart="485.12" departLane="best" from="-336970654#4" to="317037267#0"/>
    <trip id="veh210" type="veh_passenger" depart="487.44" departLane="best" from="317036126#0" to="-504166949#0"/>
    <trip id="veh211" type="veh_passenger" depart="489.76" departLane="best" from="-316184411#1" to="-504166954#1"/>
    <trip id="veh212" type="veh_passenger" depart="492.09" departLane="best" from="-336970656#5" to="-61215436#0"/>
    <trip id="veh213" type="veh_passenger" depart="494.41" departLane="best" from="316185718#0" to="-317035918#0"/>
    <trip id="veh214" type="veh_passenger" depart="496.73" departLane="best" from="-317037334#0" to="336970647#2"/>
    <trip id="veh215" type="veh_passenger" depart="499.05" departLane="best" from="336970648#1" to="-316184405#4"/>
    <trip id="veh216" type="veh_passenger" depart="501.37" departLane="best" from="-86812105#1" to="316185718#1"/>
    <trip id="veh217" type="veh_passenger" depart="503.69" departLane="best" from="-86812128#0" to="-317037285#2"/>
    <trip id="veh218" type="veh_passenger" depart="506.01" departLane="best" from="-86812129#1" to="86812095#10"/>
    <trip id="veh219" type="veh_passenger" depart="508.33" departLane="best" from="317035918#1" to="336970647#2"/>
    <trip id="veh220" type="veh_passenger" depart="510.65" departLane="best" from="86812087" to="336970654#5"/>
    <trip id="veh221" type="veh_passenger" depart="512.98" departLane="best" from="-86812095#8" to="-204122925#1"/>
    <trip id="veh222" type="veh_passenger" depart="515.30" departLane="best" from="-86812089#0" to="336970654#0"/>
    <trip id="veh223" type="veh_passenger" depart="517.62" departLane="best" from="75242557" to="86812106#0"/>
    <trip id="veh224" type="veh_passenger" depart="519.94" departLane="best" from="-86812129#1" to="336970650"/>
    <trip id="veh225" type="veh_passenger" depart="522.26" departLane="best" from="316185718#2" to="317036019"/>
    <trip id="veh226" type="veh_passenger" depart="524.58" departLane="best" from="204122924#0" to="-240494086"/>
    <trip id="veh227" type="veh_passenger" depart="526.90" departLane="best" from="-75242554#1" to="317037334#0"/>
    <trip id="veh228" type="veh_passenger" depart="529.22" departLane="best" from="-240494077#1" to="317037269#0"/>
    <trip id="veh229" type="veh_passenger" depart="531.55" departLane="best" from="-317035907#1" to="204122925#7"/>
    <trip id="veh230" type="veh_passenger" depart="533.87" departLane="best" from="-316184401#0" to="-86812095#7"/>
    <trip id="veh231" type="veh_passenger" depart="536.19" departLane="best" from="-317037295" to="-61215436#2"/>
    <trip id="veh232" type="veh_passenger" depart="538.51" departLane="best" from="336970655#4" to="-86812095#7"/>
    <trip id="veh233" type="veh_passenger" depart="540.83" departLane="best" from="336970654#9" to="504166957#1"/>
    <trip id="veh234" type="veh_passenger" depart="543.15" departLane="best" from="-336970654#6" to="-316184419#0"/>
    <trip id="veh235" type="veh_passenger" depart="545.47" departLane="best" from="-204122925#7" to="316185712"/>
    <trip id="veh236" type="veh_passenger" depart="547.79" departLane="best" from="86812129#4" to="-86812088#2"/>
    <trip id="veh237" type="veh_passenger" depart="550.11" departLane="best" from="317037285#1" to="336970655#3"/>
    <trip id="veh238" type="veh_passenger" depart="552.44" departLane="best" from="317037285#1" to="336970654#0"/>
    <trip id="veh239" type="veh_passenger" depart="554.76" departLane="best" departSpeed="max" from="86812108#0" to="-317037269#2"/>
    <trip id="veh240" type="veh_passenger" depart="557.08" departLane="best" from="-204122925#7" to="-317035970#2"/>
    <trip id="veh241" type="veh_passenger" depart="559.40" departLane="best" from="-316185749#0" to="317037324#1"/>
    <trip id="veh242" type="veh_passenger" depart="561.72" departLane="best" from="316185738#1" to="-317037320"/>
    <trip id="veh243" type="veh_passenger" depart="564.04" departLane="best" from="336970648#0" to="336970654#6"/>
    <trip id="veh244" type="veh_passenger" depart="566.36" departLane="best" from="-317036054#0" to="317036044#0"/>
    <trip id="veh245" type="veh_passenger" depart="568.68" departLane="best" from="336970654#7" to="-316185731"/>
    <trip id="veh246" type="veh_passenger" depart="571.01" departLane="best" from="61213633#3" to="86812108#2"/>
    <trip id="veh247" type="veh_passenger" depart="573.33" departLane="best" from="-316185719#1" to="-240494077#1"/>
    <trip id="veh248" type="veh_passenger" depart="575.65" departLane="best" from="-61213636" to="317037334#0"/>
    <trip id="veh249" type="veh_passenger" depart="577.97" departLane="best" departSpeed="max" from="86812108#0" to="-86812099#2"/>
    <trip id="veh250" type="veh_passenger" depart="580.29" departLane="best" from="336970648#3" to="-316184411#1"/>
    <trip id="veh251" type="veh_passenger" depart="582.61" departLane="best" from="336970647#1" to="317036126#1"/>
    <trip id="veh252" type="veh_passenger" depart="584.93" departLane="best" from="-316185718#2" to="336970654#8"/>
    <trip id="veh253" type="veh_passenger" depart="587.25" departLane="best" from="75242557" to="317036016"/>