<?xml version="1.0" encoding="UTF-8"?>

<!-- generated on Mon Nov 23 19:26:22 2020 by Eclipse SUMO polyconvert Version 1.7.0
<configuration xmlns:xsi="http://www.w3.org/2001/XMLSchema-instance" xsi:noNamespaceSchemaLocation="http://sumo.dlr.de/xsd/polyconvertConfiguration.xsd">

    <input>
        <net-file value="osm.net.xml"/>
        <osm-files value="osm_bbox.osm.xml"/>
        <osm.keep-full-type value="true"/>
        <type-file value="/usr/share/sumo/data/typemap/osmPolyconvert.typ.xml"/>
    </input>

    <output>
        <output-file value="osm.poly.xml"/>
    </output>

    <processing>
        <poi-layer-offset value="5"/>
    </processing>

    <report>
        <verbose value="true"/>
    </report>

</configuration>
-->

<additional xmlns:xsi="http://www.w3.org/2001/XMLSchema-instance" xsi:noNamespaceSchemaLocation="http://sumo.dlr.de/xsd/additional_file.xsd">
    <location netOffset="-733245.52,-2958670.59" convBoundary="-384.52,-1593.31,10021.34,10602.73" origBoundary="83.341588,26.713856,83.445306,26.824534" projParameter="+proj=utm +zone=44 +ellps=WGS84 +datum=WGS84 +units=m +no_defs"/>

    <poly id="316185744" type="waterway.stream" color="181,209,209" fill="0" layer="-4.00" shape="2698.699883,3311.178301 2681.924135,3266.270050 2675.119346,3258.705023 2610.727014,3248.480786 2592.722886,3247.546456 2582.258146,3255.343665 2576.324425,3260.298905 2546.241737,3262.453869 2524.202971,3260.690631 2489.234799,3253.742496 2440.776799,3244.980076 2420.706143,3245.470712 2404.355759,3246.573862 2401.421442,3279.619185 2372.180893,3330.586681 2363.516364,3359.811757 2364.538660,3396.810565 2367.118719,3430.313348 2368.502882,3442.011706 2353.590055,3447.154473 2339.659278,3442.848910 2316.754184,3430.450383 2270.669754,3406.479737 2239.612374,3397.410254 2186.554834,3380.238257 2164.596944,3367.192560 2112.105484,3328.681646 2089.224277,3310.165076 2073.776927,3293.227922 2033.082066,3261.931541 2016.740664,3240.089340 1979.688977,3194.273034 1937.704830,3133.278430 1933.518606,3099.923355 1930.210013,3091.082499 1909.153437,3083.042337 1887.815427,3082.645644 1859.533862,3082.119918 1828.275862,3069.334339 1810.944353,3053.615159 1763.754712,3007.600135 1734.413628,2977.857118 1702.239035,2957.073658 1607.872508,2893.200897 1565.530658,2873.304303 1547.025173,2862.363550 1521.449347,2861.334599 1497.947263,2833.285740 1491.964377,2810.339651 1479.663575,2782.498707 1455.633994,2754.440164 1433.624848,2732.260942 1404.494495,2719.516003 1389.660844,2713.399078 1371.722350,2701.914886 1346.106098,2701.439818 1314.571389,2703.504368 1234.391530,2709.455931 1185.032406,2722.873965 1187.932609,2796.742438 1183.808555,2817.372709 1157.865082,2857.662403 1048.809171,3016.107690 1009.584565,3058.390774 969.433594,3093.750882 902.429659,3110.035595 875.746694,3138.207304 843.352122,3150.776607 786.848224,3153.555255 743.176890,3148.501725 696.361302,3139.665656 671.587340,3122.757429 648.542650,3098.432169 604.427362,3030.186916 558.455082,2976.240330 519.131474,2937.281680 478.615761,2905.739118 415.365860,2862.093252 330.387075,2809.544388 312.955630,2799.667354 275.642095,2767.652583 189.978059,2723.594228 112.720128,2715.262919 69.545224,2711.806168 -21.366423,2720.228047 -54.043219,2726.520419 -67.705332,2714.585139 -71.347786,2709.740426 -90.244427,2692.410129 -102.529836,2692.704691 -110.596776,2695.748456 -119.347381,2707.270624 -144.993452,2737.591735 -167.035325,2745.676581 -192.221660,2751.054254 -213.277282,2763.945999 -248.053644,2768.082970 -270.730176,2781.998007 -324.325515,2793.226523 -345.595392,2789.121473 -384.521962,2786.808618"/>
    <poly id="317035989" type="waterway.stream" color="181,209,209" fill="0" layer="-4.00" shape="2404.355759,3246.573862 2405.648011,3224.217200 2402.763589,3212.391122 2406.336962,3201.660851 2380.197801,3143.298763"/>
    <poly id="336958014" type="building.roof" color="255,230,230" fill="1" layer="-1.00" shape="3702.722070,3474.787857 3700.342017,3465.320869 3590.538096,3492.617560 3591.640299,3496.994670 3592.927962,3502.095789 3702.722070,3474.787857"/>
    <poly id="336958015" type="building.roof" color="255,230,230" fill="1" layer="-1.00" shape="3378.544560,3536.570290 3376.127193,3526.958578 3516.852951,3491.958364 3519.090337,3501.611082 3378.544560,3536.570290"/>
    <poly id="336958017" type="building.roof" color="255,230,230" fill="1" layer="-1.00" shape="3593.844725,3472.803790 3734.392006,3437.846880 3736.949022,3447.428044 3596.221741,3482.436972 3593.844725,3472.803790"/>
    <poly id="336958018" type="building.roof" color="255,230,230" fill="1" layer="-1.00" shape="3527.969217,3518.482647 3526.645060,3513.203491 3525.542838,3508.826388 3368.761285,3547.816021 3371.197717,3557.472428 3527.969217,3518.482647"/>
    <poly id="336958057" type="building.roof" color="255,230,230" fill="1" layer="-1.00" shape="3727.333780,3390.735665 3725.972594,3385.311681 3724.851981,3380.856616 3574.395808,3418.310738 3575.479583,3422.609904 3576.877712,3428.189750 3727.333780,3390.735665"/>
    <poly id="336958058" type="building.roof" color="255,230,230" fill="1" layer="-1.00" shape="3510.141524,3444.887086 3508.714770,3439.240203 3507.649626,3435.007904 3408.541563,3459.746194 3411.033529,3469.625351 3510.141524,3444.887086"/>
    <poly id="336958059" type="building.roof" color="255,230,230" fill="1" layer="-1.00" shape="3877.679693,3333.738043 3741.797696,3367.639151 3523.874230,3422.020548 3364.509822,3461.782272 3362.212412,3452.671642 3521.577129,3412.898801 3739.500528,3358.528435 3875.372663,3324.627109 3877.679693,3333.738043"/>
    <poly id="336970652" type="building.roof" color="255,230,230" fill="1" layer="-1.00" shape="3760.393502,3441.604264 3759.096986,3436.447531 3757.976599,3431.981380 3791.369274,3423.661477 3793.796102,3433.284556 3760.393502,3441.604264"/>
    <poly id="336970653" type="building.roof" color="255,230,230" fill="1" layer="-1.00" shape="3746.381451,3385.893642 3745.048246,3380.569947 3743.899665,3376.014588 3824.901352,3355.883373 3827.392822,3365.773715 3746.381451,3385.893642"/>
    <poly id="486696723" type="building.yes" color="255,230,230" fill="1" layer="-1.00" shape="2488.974790,3035.971505 2502.357969,3032.839992 2499.516668,3020.837334 2486.133271,3023.979932 2488.974790,3035.971505"/>
    <poly id="486696724" type="building.yes" color="255,230,230" fill="1" layer="-1.00" shape="2496.879341,3070.504702 2512.420895,3066.360350 2510.057313,3057.559091 2494.505802,3061.703262 2496.879341,3070.504702"/>
    <poly id="486696725" type="building.yes" color="255,230,230" fill="1" layer="-1.00" shape="2540.564621,3139.414578 2560.395468,3135.250487 2558.181060,3124.855745 2538.360146,3129.020026 2540.564621,3139.414578"/>
    <poly id="486696726" type="building.yes" color="255,230,230" fill="1" layer="-1.00" shape="2494.932055,3167.507087 2504.556913,3164.194689 2501.760675,3156.183490 2492.145966,3159.484995 2494.932055,3167.507087"/>
    <poly id="486696727" type="building.yes" color="255,230,230" fill="1" layer="-1.00" shape="2437.932663,3224.585983 2436.666347,3214.574743 2412.374033,3223.200760 2413.182270,3228.957881 2437.932663,3224.585983"/>
    <poly id="486696728" type="building.yes" color="255,230,230" fill="1" layer="-1.00" shape="2376.900053,3170.750443 2380.567430,3179.010623 2384.339986,3177.351636 2380.662664,3169.091270 2376.900053,3170.750443"/>
    <poly id="549153986" type="amenity.college" color="237,199,199" fill="1" layer="-1.00" shape="3957.512871,1703.463922 4285.884286,3053.670313 3224.287782,3310.197584 2930.758930,3079.430230 3529.058392,2887.802228 3506.485865,2624.196258 3555.175983,2400.555818 3426.987999,1813.017703 3743.537558,1675.666373 3957.512871,1703.463922"/>
    <poly id="715878875" type="building.yes" color="255,230,230" fill="1" layer="-1.00" shape="2806.674713,3221.863025 2793.953157,3225.272596 2805.486902,3267.910508 2818.208213,3264.512033 2806.674713,3221.863025"/>
    <poly id="715878876" type="building.yes" color="255,230,230" fill="1" layer="-1.00" shape="2813.062486,3240.571950 2817.949768,3258.632108 2825.350576,3256.652992 2820.463302,3238.592830 2813.062486,3240.571950"/>
    <poly id="715878877" type="building.yes" color="255,230,230" fill="1" layer="-1.00" shape="2812.371048,3238.696749 2820.241891,3236.593380 2815.373254,3218.600081 2807.502402,3220.703453 2812.371048,3238.696749"/>
    <poly id="715878878" type="building.yes" color="255,230,230" fill="1" layer="-1.00" shape="2846.977139,3211.197631 2858.975842,3255.573561 2873.437604,3251.697715 2861.428789,3207.332664 2846.977139,3211.197631"/>
    <poly id="715878879" type="building.yes" color="255,230,230" fill="1" layer="-1.00" shape="2855.091014,3248.317896 2850.157348,3230.079491 2842.286495,3232.182842 2847.219964,3250.432324 2855.091014,3248.317896"/>
    <poly id="715878880" type="building.yes" color="255,230,230" fill="1" layer="-1.00" shape="2842.136414,3231.160211 2849.770797,3228.930511 2844.792189,3212.032568 2837.158004,3214.251191 2842.136414,3231.160211"/>
    <poly id="715878881" type="building.yes" color="255,230,230" fill="1" layer="-1.00" shape="2882.429794,3128.233479 2894.009803,3171.049711 2908.291370,3167.237041 2896.701456,3124.420608 2882.429794,3128.233479"/>
    <poly id="715878882" type="building.yes" color="255,230,230" fill="1" layer="-1.00" shape="2924.690488,3237.612182 2913.986037,3193.748083 2900.211194,3197.071374 2910.915687,3240.935460 2924.690488,3237.612182"/>
    <poly id="715878883" type="building.yes" color="255,230,230" fill="1" layer="-1.00" shape="2928.532386,3453.388996 2940.834743,3450.570344 2935.429285,3427.235007 2923.127115,3430.042585 2928.532386,3453.388996"/>
    <poly id="715878884" type="building.yes" color="255,230,230" fill="1" layer="-1.00" shape="3023.601479,3457.814112 3037.536067,3465.102417 3067.564536,3408.320179 3053.619948,3401.031658 3023.601479,3457.814112"/>
    <poly id="715878900" type="leisure.stadium" color="207,245,201" fill="1" layer="-2.00" shape="3278.017810,3091.295463 3288.985971,3103.971344 3306.529013,3108.290076 3322.545056,3108.057537 3407.673014,3080.174635 3415.297712,3072.624208 3421.937624,3059.734491 3423.504111,3047.281933 3419.285508,3030.220564 3411.660262,3024.502067 3406.715985,3017.503519 3391.604905,3011.911024 3375.593707,3011.877535 3296.657962,3036.417924 3283.074543,3049.177849 3276.514344,3057.280341 3271.267279,3067.003648 3272.381893,3078.708217 3278.017810,3091.295463"/>
    <poly id="736728313" type="building.yes" color="255,230,230" fill="1" layer="-1.00" shape="1920.249750,3211.990081 1924.904091,3212.675214 1925.566531,3209.694576 1930.616936,3206.740102 1930.342853,3203.819645 1932.763737,3202.600967 1938.957501,3203.447750 1939.397444,3201.194586 1943.989629,3202.011590 1946.441959,3190.539852 1939.280194,3182.347866 1940.808115,3171.889845 1936.994771,3165.578069 1927.975603,3162.550429 1928.191255,3157.909814 1924.467037,3157.508016 1925.105618,3150.458731 1912.360477,3148.193201 1911.533074,3153.088482 1907.340074,3152.744484 1906.502785,3158.171662 1898.294671,3158.085569 1895.310647,3160.690496 1893.037620,3160.914279 1892.825689,3165.355431 1894.894816,3165.393899 1901.960172,3172.885708 1900.647926,3178.703117 1905.364496,3179.788459 1920.506601,3208.879966 1920.249750,3211.990081"/>
    <poly id="744244618" type="landuse.railway" color="194,194,130" fill="1" layer="-3.00" shape="4338.789322,3237.869322 4366.841785,3315.748987 4267.237123,3342.378129 4328.638460,3607.647871 3149.811198,3908.632637 3143.358001,3883.891913 3052.246311,3789.273393 2953.606428,3668.764328 2916.067842,3634.874399 2880.549822,3621.729308 2909.123554,3620.943754 2931.197192,3625.069504 2969.724180,3634.812393 3005.132300,3639.453409 3179.659075,3626.785864 3441.419211,3559.207755 3438.126308,3549.590725 3934.186138,3428.001873 3932.937737,3423.466788 4001.596598,3406.175828 4038.711650,3390.942713 4068.674579,3372.915042 4079.249127,3364.090120 4084.197891,3370.823021 4260.192176,3251.735065 4263.295688,3257.103162 4302.162783,3233.933383 4323.341146,3243.365623 4338.789322,3237.869322"/>
    <poly id="744541613" type="building.yes" color="255,230,230" fill="1" layer="-1.00" shape="2100.445245,2471.170450 2140.724134,2458.639935 2136.335989,2444.702007 2096.067011,2457.232723 2100.445245,2471.170450"/>
    <poly id="750585494" type="building.yes" color="255,230,230" fill="1" layer="-1.00" shape="3128.398934,2624.276066 3139.193734,2621.229831 3137.437556,2615.089120 3126.642752,2618.135357 3128.398934,2624.276066"/>
    <poly id="750615068" type="building.yes" color="255,230,230" fill="1" layer="-1.00" shape="2313.017041,2809.861699 2342.502171,2807.783639 2346.381381,2822.310792 2314.988043,2825.860871 2313.017041,2809.861699"/>
    <poly id="751575195" type="building.yes" color="255,230,230" fill="1" layer="-1.00" shape="3331.131872,2827.187868 3334.182619,2839.128184 3356.569713,2833.483333 3353.528933,2821.543196 3331.131872,2827.187868"/>
    <poly id="751941731" type="building.yes" color="255,230,230" fill="1" layer="-1.00" shape="1942.781251,2766.591677 1970.559951,2736.934750 1981.184284,2746.776272 1957.771208,2771.781044 1951.676390,2766.136299 1947.320706,2770.788618 1942.781251,2766.591677"/>
    <poly id="752137495" type="building.yes" color="255,230,230" fill="1" layer="-1.00" shape="2318.714167,2492.148443 2335.282655,2487.934258 2348.821817,2477.522566 2339.957981,2443.149059 2306.847560,2450.680054 2308.336997,2473.842267 2313.905521,2473.546887 2318.714167,2492.148443"/>
    <poly id="752140971" type="building.yes" color="255,230,230" fill="1" layer="-1.00" shape="2082.541690,3540.942089 2090.845279,3540.697550 2088.323091,3521.695194 2081.438264,3522.165667 2082.541690,3540.942089"/>
    <poly id="752691738" type="building.yes" color="255,230,230" fill="1" layer="-1.00" shape="2410.928230,2558.325362 2427.240363,2557.720254 2427.059700,2552.994656 2410.747355,2553.610846 2410.928230,2558.325362"/>
    <poly id="752968595" type="building.yes" color="255,230,230" fill="1" layer="-1.00" shape="1986.822099,2574.165425 1992.123244,2591.456860 1988.850819,2592.438002 1992.547660,2604.489649 2006.688914,2600.207754 1997.700901,2570.864846 1986.822099,2574.165425"/>
    <poly id="803277580" type="building.yes" color="255,230,230" fill="1" layer="-1.00" shape="3259.406593,2780.586088 3262.932893,2797.966981 3307.134321,2789.105074 3303.608284,2771.713084 3259.406593,2780.586088"/>
    <poly id="803277597" type="building.yes" color="255,230,230" fill="1" layer="-1.00" shape="2812.510504,3114.457621 2815.159684,3123.940478 2832.404646,3119.174285 2829.755477,3109.691424 2812.510504,3114.457621"/>
    <poly id="803277612" type="building.yes" color="255,230,230" fill="1" layer="-1.00" shape="2097.033615,3092.090363 2101.167396,3103.640291 2123.996563,3095.562873 2119.872540,3084.024202 2097.033615,3092.090363"/>
    <poly id="803277633" type="building.yes" color="255,230,230" fill="1" layer="-1.00" shape="3284.791515,2708.286869 3285.776022,2718.437081 3300.231725,2717.055696 3299.247229,2706.905482 3284.791515,2708.286869"/>
    <poly id="803277653" type="building.yes" color="255,230,230" fill="1" layer="-1.00" shape="2416.228978,2764.716954 2422.425027,2779.874806 2433.725472,2775.307680 2427.519484,2760.149636 2416.228978,2764.716954"/>
    <poly id="803277672" type="building.yes" color="255,230,230" fill="1" layer="-1.00" shape="3050.753567,2711.772404 3052.360037,2722.732327 3066.150389,2720.739654 3064.534190,2709.768462 3050.753567,2711.772404"/>
    <poly id="838518379" type="building.commercial" color="255,230,230" fill="1" layer="-1.00" shape="2086.297510,2998.421604 2051.305022,2935.494918 2105.998107,2911.404834 2136.062657,2973.896347 2134.150956,2975.556783 2120.386210,2982.084687 2086.297510,2998.421604"/>
    <poly id="842548820" type="building.yes" color="255,230,230" fill="1" layer="-1.00" shape="1947.318689,2983.377082 1964.149163,2975.198913 1959.815299,2966.372242 1942.984611,2974.561498 1947.318689,2983.377082"/>
    <poly id="99203980" type="landuse.railway" color="194,194,130" fill="1" layer="-3.00" shape="2765.267981,3572.720537 2835.808368,3545.094028 2969.980089,3469.815277 3025.789497,3403.016927 3239.429153,3357.259948 3251.551159,3341.213648 4299.288726,3091.301383 4324.411897,3183.181924 4333.691393,3223.717503 4338.789322,3237.869322 4323.341146,3243.365623 4302.162783,3233.933383 4263.295688,3257.103162 4260.192176,3251.735065 4084.197891,3370.823021 4079.249127,3364.090120 4068.674579,3372.915042 4038.711650,3390.942713 4001.596598,3406.175828 3932.937737,3423.466788 3934.186138,3428.001873 3438.126308,3549.590725 3441.419211,3559.207755 3179.659075,3626.785864 3005.132300,3639.453409 2969.724180,3634.812393 2931.197192,3625.069504 2909.123554,3620.943754 2880.549822,3621.729308 2869.562966,3623.918544 2853.379227,3633.171738 2827.438678,3664.546029 2823.490351,3675.623933 2828.579501,3689.253850 2876.643858,3745.111210 2859.043107,3758.849562 2835.660504,3739.036227 2798.479595,3700.375652 2787.327356,3682.641941 2775.420897,3613.614502 2765.267981,3572.720537"/>
    <poi id="4432076289" type="tourism.hotel" color="207,245,201" layer="3.00" x="3004.90" y="2705.50"/>
    <poi id="4481339789" type="tourism.hotel" color="207,245,201" layer="3.00" x="3684.58" y="3208.81"/>
    <poi id="4739445922" type="tourism.hotel" color="207,245,201" layer="3.00" x="3487.13" y="3261.12"/>
    <poi id="4740900222" type="tourism.hotel" color="207,245,201" layer="3.00" x="3452.11" y="3266.13"/>
    <poi id="4837150027" type="amenity.bus_station" color="237,199,199" layer="4.00" x="2954.34" y="2712.71"/>
    <poi id="5147934535" type="amenity.bus_station" color="237,199,199" layer="4.00" x="3588.70" y="2890.90"/>
    <poi id="5192711821" type="amenity.restaurant" color="237,199,199" layer="4.00" x="2587.73" y="2701.88"/>
    <poi id="5197728521" type="tourism.hotel" color="207,245,201" layer="3.00" x="3965.32" y="3146.59"/>
    <poi id="575741452" type="population.671048" color="51,128,255" layer="4.00" x="2114.76" y="3374.90"/>
    <poi id="6195325186" type="amenity.cafe" color="237,199,199" layer="4.00" x="2184.17" y="2944.14"/>
    <poi id="6344410685" type="amenity.bank" color="237,199,199" layer="4.00" x="2079.61" y="2771.26"/>
    <poi id="6344410785" type="amenity.police" color="237,199,199" layer="4.00" x="3148.85" y="3238.26"/>
    <poi id="6457275486" type="amenity.restaurant" color="237,199,199" layer="4.00" x="3639.51" y="3227.93"/>
    <poi id="6968263341" type="amenity.hospital" color="237,199,199" layer="4.00" x="2116.18" y="2457.92"/>
    <poi id="7018033057" type="amenity.hospital" color="237,199,199" layer="4.00" x="3131.88" y="2620.23"/>
    <poi id="7018342636" type="amenity.hospital" color="237,199,199" layer="4.00" x="2330.49" y="2814.13"/>
    <poi id="7019667633" type="amenity.hospital" color="237,199,199" layer="4.00" x="2324.94" y="2814.38"/>
    <poi id="7026121810" type="amenity.hospital" color="237,199,199" layer="4.00" x="3339.05" y="2831.91"/>
    <poi id="7029166974" type="amenity.hospital" color="237,199,199" layer="4.00" x="1962.49" y="2756.34"/>
    <poi id="7030689672" type="amenity.clinic" color="237,199,199" layer="4.00" x="2086.41" y="3534.27"/>
    <poi id="7030703431" type="amenity.hospital" color="237,199,199" layer="4.00" x="2341.28" y="2475.56"/>
    <poi id="7033720618" type="amenity.hospital" color="237,199,199" layer="4.00" x="2413.05" y="2555.57"/>
    <poi id="7035744939" type="amenity.hospital" color="237,199,199" layer="4.00" x="2001.22" y="2596.69"/>
    <poi id="7077754935" type="amenity.bank" color="237,199,199" layer="4.00" x="2118.04" y="2865.95"/>
    <poi id="7077754938" type="amenity.bank" color="237,199,199" layer="4.00" x="2064.74" y="2580.39"/>
    <poi id="7077754939" type="shop.mobile_phone" color="237,199,255" layer="4.00" x="2081.63" y="2582.65"/>
    <poi id="7077754940" type="shop.mobile_phone" color="237,199,255" layer="4.00" x="2075.76" y="2583.40"/>
    <poi id="7513990044" type="amenity.hospital" color="237,199,199" layer="4.00" x="2424.45" y="2770.15"/>
    <poi id="7513990045" type="amenity.hospital" color="237,199,199" layer="4.00" x="3284.59" y="2784.21"/>
    <poi id="7513990053" type="amenity.hospital" color="237,199,199" layer="4.00" x="2823.47" y="3117.19"/>
    <poi id="7513990100" type="amenity.hospital" color="237,199,199" layer="4.00" x="2111.07" y="3094.21"/>
    <poi id="7513990142" type="amenity.hospital" color="237,199,199" layer="4.00" x="3291.33" y="2713.38"/>
    <poi id="7513990145" type="amenity.hospital" color="237,199,199" layer="4.00" x="3058.49" y="2716.32"/>
    <poi id="7825797591" type="shop.clothes" color="237,199,255" layer="4.00" x="2115.47" y="2970.80"/>
</additional>
