<?xml version="1.0" encoding="UTF-8"?>

<!-- generated on Thu Nov 19 11:44:06 2020 by Eclipse SUMO polyconvert Version 1.7.0
<configuration xmlns:xsi="http://www.w3.org/2001/XMLSchema-instance" xsi:noNamespaceSchemaLocation="http://sumo.dlr.de/xsd/polyconvertConfiguration.xsd">

    <input>
        <net-file value="osm.net.xml"/>
        <osm-files value="osm_bbox.osm.xml"/>
        <osm.keep-full-type value="true"/>
        <type-file value="/usr/share/sumo/data/typemap/osmPolyconvert.typ.xml"/>
    </input>

    <output>
        <output-file value="osm.poly.xml"/>
    </output>

    <processing>
        <poi-layer-offset value="5"/>
    </processing>

    <report>
        <verbose value="true"/>
    </report>

</configuration>
-->

<additional xmlns:xsi="http://www.w3.org/2001/XMLSchema-instance" xsi:noNamespaceSchemaLocation="http://sumo.dlr.de/xsd/additional_file.xsd">
    <location netOffset="-781669.42,-1436482.83" convBoundary="-498.65,-0.00,35944.69,24127.27" origBoundary="77.592817,12.980989,77.927674,13.198447" projParameter="+proj=utm +zone=43 +ellps=WGS84 +datum=WGS84 +units=m +no_defs"/>

    <poly id="101834067" type="landuse.railway" color="194,194,130" fill="1" layer="-3.00" shape="-9.649137,1461.904100 -38.161000,1473.048745 -38.625344,1480.261683 -28.425639,1499.871112 -19.649823,1505.816653 2.153925,1505.253017 28.712196,1500.453776 40.594720,1490.235530 40.364252,1480.901121 91.520927,1460.179460 205.616102,1419.487593 216.326092,1441.205662 447.112344,1343.853485 560.044281,1309.826267 660.092482,1328.748938 690.883975,1344.218627 792.832233,1356.729505 807.398703,1348.420883 853.482639,1363.139404 879.706433,1376.226820 899.608244,1395.006063 947.916235,1458.655353 986.282039,1441.501758 935.561898,1362.152409 864.367847,1273.217427 827.197481,1242.460900 811.061573,1271.543158 776.100014,1260.458751 739.956663,1246.041280 680.492938,1232.902121 652.630640,1230.348006 652.108163,1198.615748 609.530580,1199.807991 557.436683,1203.781308 488.487219,1215.929417 380.974557,1249.713419 252.544970,1298.228918 200.071889,1333.018060 199.091876,1368.421210 117.972911,1399.829633 17.192847,1436.738832 -9.649137,1461.904100"/>
    <poly id="133182891" type="leisure.park" color="207,245,201" fill="1" layer="-2.00" shape="1229.166409,1483.995735 1329.875913,1405.466119 1342.716712,1378.066181 1425.505002,1317.452910 1443.014327,1381.108700 1472.808398,1477.968119 1290.723262,1599.003143 1229.166409,1483.995735"/>
    <poly id="133257538" type="amenity.school" color="237,199,199" fill="1" layer="-1.00" shape="1709.831928,1318.209387 1662.143849,1234.450297 1704.209370,1213.361289 1680.296198,1167.628619 1734.460075,1157.711765 1780.476245,1133.552638 1796.562884,1125.260049 1856.701340,1095.943292 1913.181463,1199.896518 1709.831928,1318.209387"/>
    <poly id="133486238" type="amenity.school" color="237,199,199" fill="1" layer="-1.00" shape="1566.527540,1416.393505 1507.822711,1455.278952 1505.149657,1445.996882 1480.084714,1452.260272 1461.860966,1394.774261 1436.008624,1305.206242 1496.517545,1261.899954 1540.673032,1342.954539 1566.527540,1416.393505"/>
    <poly id="172924462" type="amenity.place_of_worship" color="237,199,199" fill="1" layer="-1.00" shape="1700.663538,1321.978836 1611.513000,1382.592582 1520.199805,1246.511617 1576.116109,1203.291219 1615.033852,1187.450285 1700.663538,1321.978836"/>
    <poly id="172924463" type="amenity.place_of_worship" color="237,199,199" fill="1" layer="-1.00" shape="1571.455920,1270.295518 1586.521989,1260.940704 1601.251773,1284.383397 1609.325577,1279.373902 1619.633128,1295.785979 1611.832509,1300.621149 1613.114182,1302.671205 1610.576965,1309.785456 1604.530460,1312.944877 1598.037380,1312.014823 1596.595497,1309.708510 1586.719111,1315.828683 1576.411438,1299.427689 1586.003903,1293.470654 1571.455920,1270.295518"/>
    <poly id="172924463#1" type="building.yes" color="255,230,230" fill="1" layer="-1.00" shape="1571.455920,1270.295518 1586.521989,1260.940704 1601.251773,1284.383397 1609.325577,1279.373902 1619.633128,1295.785979 1611.832509,1300.621149 1613.114182,1302.671205 1610.576965,1309.785456 1604.530460,1312.944877 1598.037380,1312.014823 1596.595497,1309.708510 1586.719111,1315.828683 1576.411438,1299.427689 1586.003903,1293.470654 1571.455920,1270.295518"/>
    <poly id="224621538" type="landuse.commercial" color="209,209,204" fill="1" layer="-3.00" shape="1856.701340,1095.943292 1881.364435,1080.222084 1887.904239,1081.894378 1938.327403,1180.493948 1935.178417,1186.915555 1913.181463,1199.896518 1856.701340,1095.943292"/>
    <poly id="224623125" type="leisure.park" color="207,245,201" fill="1" layer="-2.00" shape="1006.493874,1109.571367 1000.136594,1127.196396 989.622246,1135.203233 973.385619,1147.579584 1027.860062,1209.111219 1044.103863,1237.406656 1058.558604,1244.274153 1116.115771,1249.590199 1118.813561,1181.171123 1050.793895,1121.493298 1038.785320,1096.230144 1006.493874,1109.571367"/>
    <poly id="224632087" type="amenity.place_of_worship" color="237,199,199" fill="1" layer="-1.00" shape="1006.493874,1109.571367 997.195323,1068.771361 951.692342,1067.254223 939.388987,1110.069399 955.292159,1130.291144 974.207527,1117.111925 989.622246,1135.203233 1000.136594,1127.196396 1006.493874,1109.571367"/>
    <poly id="224632088" type="amenity.place_of_worship" color="237,199,199" fill="1" layer="-1.00" shape="978.348306,1075.264914 952.287220,1082.326752 962.700619,1120.270971 988.772531,1113.209260 978.348306,1075.264914"/>
    <poly id="224632088#1" type="building.yes" color="255,230,230" fill="1" layer="-1.00" shape="978.348306,1075.264914 952.287220,1082.326752 962.700619,1120.270971 988.772531,1113.209260 978.348306,1075.264914"/>
    <poly id="310730355" type="building.apartments" color="255,230,230" fill="1" layer="-1.00" shape="1998.287672,1277.442524 1993.207727,1265.755568 2008.942092,1258.998246 2014.022032,1270.685206 1998.287672,1277.442524"/>
    <poly id="345850445" type="building.yes" color="255,230,230" fill="1" layer="-1.00" shape="1596.143293,1054.170886 1598.450077,1068.475068 1600.864028,1068.090219 1601.863562,1074.366189 1618.924159,1071.662857 1617.577130,1063.279989 1604.376658,1065.369757 1603.295053,1058.627998 1616.484672,1056.538118 1615.617741,1051.093770 1596.143293,1054.170886"/>
    <poly id="345850461" type="building.yes" color="255,230,230" fill="1" layer="-1.00" shape="1619.582244,977.827676 1634.283782,975.454401 1633.620212,971.351631 1630.390667,971.872028 1630.206629,970.763123 1627.531700,971.189576 1627.296793,969.748044 1622.327418,970.549500 1622.490541,971.580700 1618.662962,972.194599 1619.582244,977.827676"/>
    <poly id="345850521" type="building.yes" color="255,230,230" fill="1" layer="-1.00" shape="1765.796372,948.618367 1776.407123,947.122029 1776.914098,950.614340 1792.156264,948.457023 1789.096690,927.115513 1770.538687,929.736981 1771.349394,935.368955 1768.827104,935.730539 1769.323225,939.222739 1766.126916,939.677042 1766.633324,943.224698 1765.046139,943.440892 1765.796372,948.618367"/>
    <poly id="345850569" type="building.yes" color="255,230,230" fill="1" layer="-1.00" shape="1765.229391,976.376595 1766.251604,980.438771 1767.046161,980.236588 1767.692817,982.811506 1767.453444,982.864401 1767.943749,984.806715 1769.511039,984.413194 1769.886711,985.889383 1786.016430,981.870309 1785.640532,980.416257 1785.118345,978.407195 1783.470621,971.825667 1765.229391,976.376595"/>
    <poly id="345850655" type="building.yes" color="255,230,230" fill="1" layer="-1.00" shape="1641.482272,1050.528698 1653.776787,1046.802339 1651.612780,1039.750582 1639.318262,1043.476943 1641.482272,1050.528698"/>
    <poly id="345850690" type="building.yes" color="255,230,230" fill="1" layer="-1.00" shape="1796.351601,1004.061372 1802.373601,1002.241218 1800.178195,995.078419 1794.156194,996.898574 1796.351601,1004.061372"/>
    <poly id="345850698" type="building.yes" color="255,230,230" fill="1" layer="-1.00" shape="1871.053063,1066.300653 1877.853344,1061.632391 1873.830906,1055.845678 1867.030738,1060.502871 1871.053063,1066.300653"/>
    <poly id="345850707" type="building.yes" color="255,230,230" fill="1" layer="-1.00" shape="1591.547345,1019.606950 1597.961186,1018.742807 1597.204271,1013.155677 1590.790542,1014.008751 1591.547345,1019.606950"/>
    <poly id="345850730" type="building.yes" color="255,230,230" fill="1" layer="-1.00" shape="1682.474870,983.764086 1683.586800,989.664827 1691.015485,988.290812 1689.914411,982.390181 1682.474870,983.764086"/>
    <poly id="345850736" type="building.yes" color="255,230,230" fill="1" layer="-1.00" shape="1818.137889,1023.259200 1827.947243,1015.223248 1822.596121,1008.791912 1812.797622,1016.827978 1818.137889,1023.259200"/>
    <poly id="345850743" type="building.yes" color="255,230,230" fill="1" layer="-1.00" shape="1586.004703,1158.923688 1594.147061,1156.759921 1592.368831,1150.199213 1584.237325,1152.363092 1586.004703,1158.923688"/>
    <poly id="345850749" type="building.yes" color="255,230,230" fill="1" layer="-1.00" shape="1748.268831,1012.712121 1761.276487,1012.491299 1761.147568,1004.951175 1748.128940,1005.182955 1748.268831,1012.712121"/>
    <poly id="345850767" type="building.yes" color="255,230,230" fill="1" layer="-1.00" shape="1781.355875,1044.634784 1773.940342,1047.901911 1775.075799,1050.448633 1782.491331,1047.181507 1781.355875,1044.634784"/>
    <poly id="345850781" type="building.yes" color="255,230,230" fill="1" layer="-1.00" shape="1651.385004,1067.257655 1657.450621,1065.415781 1655.454391,1058.941393 1649.388887,1060.772199 1651.385004,1067.257655"/>
    <poly id="345850789" type="building.yes" color="255,230,230" fill="1" layer="-1.00" shape="1605.261317,1149.556483 1617.709978,1146.673032 1616.940210,1143.399436 1604.491547,1146.282888 1605.261317,1149.556483"/>
    <poly id="345850808" type="building.yes" color="255,230,230" fill="1" layer="-1.00" shape="1677.232991,1126.526809 1688.505576,1125.059379 1687.790629,1119.616585 1676.518042,1121.084015 1677.232991,1126.526809"/>
    <poly id="345850828" type="building.yes" color="255,230,230" fill="1" layer="-1.00" shape="1749.107622,979.620850 1753.127527,979.307836 1752.694013,973.945417 1748.673993,974.269500 1749.107622,979.620850"/>
    <poly id="345850896" type="building.yes" color="255,230,230" fill="1" layer="-1.00" shape="1778.378876,999.371430 1788.062230,997.267796 1786.776192,991.409540 1777.081981,993.513064 1778.378876,999.371430"/>
    <poly id="345850938" type="building.yes" color="255,230,230" fill="1" layer="-1.00" shape="1570.509608,986.678915 1567.630140,974.228661 1556.259214,976.813231 1559.127832,989.263372 1570.509608,986.678915"/>
    <poly id="345850966" type="building.yes" color="255,230,230" fill="1" layer="-1.00" shape="1653.634758,1038.420753 1655.787641,1046.557274 1670.297327,1042.776144 1668.155188,1034.650802 1653.634758,1038.420753"/>
    <poly id="345850977" type="building.yes" color="255,230,230" fill="1" layer="-1.00" shape="1836.094270,1018.960003 1851.078508,1009.139500 1846.652658,1002.463038 1831.668533,1012.272475 1836.094270,1018.960003"/>
    <poly id="345851011" type="building.yes" color="255,230,230" fill="1" layer="-1.00" shape="1572.907004,1186.996225 1581.724500,1184.629044 1579.025102,1174.737839 1570.207603,1177.105021 1572.907004,1186.996225"/>
    <poly id="345851019" type="building.yes" color="255,230,230" fill="1" layer="-1.00" shape="1834.930093,986.412744 1840.806882,982.875226 1837.966866,978.229814 1832.089962,981.778402 1834.930093,986.412744"/>
    <poly id="345851027" type="building.yes" color="255,230,230" fill="1" layer="-1.00" shape="1647.118309,1147.749496 1652.563488,1146.067315 1650.681901,1140.059050 1645.236608,1141.752301 1647.118309,1147.749496"/>
    <poly id="345851045" type="building.yes" color="255,230,230" fill="1" layer="-1.00" shape="1626.095366,1069.987295 1642.572693,1065.938504 1639.903402,1055.228407 1623.426070,1059.277201 1626.095366,1069.987295"/>
    <poly id="345851053" type="building.yes" color="255,230,230" fill="1" layer="-1.00" shape="1778.996607,959.259383 1790.932324,957.710221 1789.995612,950.604617 1778.059893,952.153780 1778.996607,959.259383"/>
    <poly id="345851113" type="building.yes" color="255,230,230" fill="1" layer="-1.00" shape="1682.695653,959.057694 1698.576186,957.106137 1696.705780,942.596082 1681.040787,943.642096 1682.695653,959.057694"/>
    <poly id="345851120" type="building.yes" color="255,230,230" fill="1" layer="-1.00" shape="1812.891458,986.518741 1820.161471,983.681865 1818.426255,979.280264 1811.156241,982.117141 1812.891458,986.518741"/>
    <poly id="345851125" type="building.yes" color="255,230,230" fill="1" layer="-1.00" shape="1583.385834,1083.996005 1582.391520,1074.033721 1576.175687,1074.645280 1577.170003,1084.607564 1583.385834,1083.996005"/>
    <poly id="345851134" type="building.yes" color="255,230,230" fill="1" layer="-1.00" shape="1578.651780,1072.434487 1589.632883,1070.809044 1587.650111,1057.725905 1576.679857,1059.351462 1578.651780,1072.434487"/>
    <poly id="345851148" type="building.yes" color="255,230,230" fill="1" layer="-1.00" shape="1582.938002,1180.623010 1588.932860,1180.385578 1588.659162,1173.198225 1582.664416,1173.424588 1582.938002,1180.623010"/>
    <poly id="345851160" type="building.yes" color="255,230,230" fill="1" layer="-1.00" shape="1776.879305,1098.987798 1780.732265,1096.957199 1777.132289,1090.200659 1773.268474,1092.231148 1776.879305,1098.987798"/>
    <poly id="345851173" type="building.yes" color="255,230,230" fill="1" layer="-1.00" shape="1584.827773,1085.239577 1595.179411,1083.596613 1593.220583,1071.355052 1582.858086,1072.997907 1584.827773,1085.239577"/>
    <poly id="345851178" type="building.yes" color="255,230,230" fill="1" layer="-1.00" shape="1547.667662,1060.924925 1569.771929,1056.524173 1565.659951,1036.168247 1543.555669,1040.569004 1547.667662,1060.924925"/>
    <poly id="345851182" type="building.yes" color="255,230,230" fill="1" layer="-1.00" shape="1796.230309,1062.444341 1806.897530,1056.498383 1803.304319,1050.140436 1792.647952,1056.086507 1796.230309,1062.444341"/>
    <poly id="345851190" type="building.yes" color="255,230,230" fill="1" layer="-1.00" shape="1573.951099,1003.607284 1569.971332,988.356065 1552.740918,992.795713 1556.720806,1008.035859 1573.951099,1003.607284"/>
    <poly id="345851199" type="building.yes" color="255,230,230" fill="1" layer="-1.00" shape="1552.072977,1143.741792 1556.427758,1143.587170 1556.137560,1135.890422 1551.782777,1136.045044 1552.072977,1143.741792"/>
    <poly id="345851204" type="building.yes" color="255,230,230" fill="1" layer="-1.00" shape="1835.243597,1037.327806 1838.116575,1035.586052 1835.233486,1030.906986 1832.360509,1032.648741 1835.243597,1037.327806"/>
    <poly id="345851261" type="building.yes" color="255,230,230" fill="1" layer="-1.00" shape="1646.330408,1139.892656 1652.214729,1138.790627 1649.907562,1126.645116 1644.023238,1127.747145 1646.330408,1139.892656"/>
    <poly id="345851279" type="building.yes" color="255,230,230" fill="1" layer="-1.00" shape="1725.443607,1001.662433 1739.716778,1000.834649 1739.402210,995.517731 1725.129037,996.345516 1725.443607,1001.662433"/>
    <poly id="345851292" type="building.yes" color="255,230,230" fill="1" layer="-1.00" shape="1794.285311,1043.571843 1803.918041,1037.936306 1801.207489,1033.369717 1791.574645,1039.016325 1794.285311,1043.571843"/>
    <poly id="345851299" type="building.yes" color="255,230,230" fill="1" layer="-1.00" shape="1809.574365,1002.979303 1814.197348,1001.023026 1812.426730,996.897818 1807.803746,998.854095 1809.574365,1002.979303"/>
    <poly id="345851306" type="building.yes" color="255,230,230" fill="1" layer="-1.00" shape="1568.682702,1165.952789 1582.998511,1162.014658 1580.600732,1153.410687 1566.284919,1157.348819 1568.682702,1165.952789"/>
    <poly id="345851318" type="building.yes" color="255,230,230" fill="1" layer="-1.00" shape="1830.770084,1012.019712 1835.409991,1008.414153 1831.455681,1003.391992 1826.815888,1006.986483 1830.770084,1012.019712"/>
    <poly id="345851340" type="building.yes" color="255,230,230" fill="1" layer="-1.00" shape="1568.739202,1086.314506 1576.423257,1085.441242 1575.107990,1073.959054 1567.424045,1074.821249 1568.739202,1086.314506"/>
    <poly id="345851343" type="building.yes" color="255,230,230" fill="1" layer="-1.00" shape="1714.880014,1140.396412 1732.539286,1135.418837 1730.422475,1128.002236 1712.763199,1132.979813 1714.880014,1140.396412"/>
    <poly id="345851356" type="building.yes" color="255,230,230" fill="1" layer="-1.00" shape="1772.909359,961.089945 1777.225413,960.481076 1776.009925,951.977770 1771.693869,952.586639 1772.909359,961.089945"/>
    <poly id="345851367" type="building.yes" color="255,230,230" fill="1" layer="-1.00" shape="1619.490037,1146.702354 1622.883404,1146.084007 1622.071167,1141.658676 1618.677799,1142.277023 1619.490037,1146.702354"/>
    <poly id="345851405" type="building.yes" color="255,230,230" fill="1" layer="-1.00" shape="1724.624205,1014.871836 1731.504245,1014.067855 1730.555464,1006.021166 1723.675422,1006.825147 1724.624205,1014.871836"/>
    <poly id="345851413" type="building.yes" color="255,230,230" fill="1" layer="-1.00" shape="1570.077085,1175.011420 1583.454733,1171.517550 1581.490082,1164.080387 1568.112431,1167.574259 1570.077085,1175.011420"/>
    <poly id="345851419" type="building.yes" color="255,230,230" fill="1" layer="-1.00" shape="1786.641549,1071.202126 1796.339805,1066.585718 1791.481950,1056.517353 1781.783579,1061.144832 1786.641549,1071.202126"/>
    <poly id="345851423" type="building.yes" color="255,230,230" fill="1" layer="-1.00" shape="1735.966853,1112.416926 1748.230549,1107.461504 1743.633929,1096.266669 1731.381085,1101.222205 1735.966853,1112.416926"/>
    <poly id="345851456" type="building.yes" color="255,230,230" fill="1" layer="-1.00" shape="1643.997849,1160.924228 1654.776023,1157.912962 1651.999753,1148.109519 1641.221576,1151.120786 1643.997849,1160.924228"/>
    <poly id="345851477" type="building.yes" color="255,230,230" fill="1" layer="-1.00" shape="1830.771785,1031.957158 1834.172719,1029.545538 1830.640614,1024.638410 1827.239566,1027.061099 1830.771785,1031.957158"/>
    <poly id="345851485" type="building.yes" color="255,230,230" fill="1" layer="-1.00" shape="1794.113956,995.724700 1792.270396,989.185442 1790.092966,989.794106 1791.936527,996.333363 1794.113956,995.724700"/>
    <poly id="345851496" type="building.yes" color="255,230,230" fill="1" layer="-1.00" shape="1585.968995,1161.347691 1588.565981,1167.462916 1596.928423,1163.950844 1594.320583,1157.835507 1585.968995,1161.347691"/>
    <poly id="345851514" type="building.yes" color="255,230,230" fill="1" layer="-1.00" shape="1713.442631,1054.034188 1741.289421,1050.721991 1739.638261,1037.066579 1711.802313,1040.378892 1713.442631,1054.034188"/>
    <poly id="345851519" type="building.yes" color="255,230,230" fill="1" layer="-1.00" shape="1843.035001,1083.127676 1848.490483,1079.386577 1846.051603,1075.852298 1840.585153,1079.604355 1843.035001,1083.127676"/>
    <poly id="345851524" type="building.yes" color="255,230,230" fill="1" layer="-1.00" shape="1720.316459,970.214791 1729.006082,969.739332 1728.611073,962.738921 1719.932303,963.214492 1720.316459,970.214791"/>
    <poly id="345851567" type="building.yes" color="255,230,230" fill="1" layer="-1.00" shape="1783.744610,1005.437589 1792.662043,1002.861151 1791.120214,997.598061 1782.202780,1000.174500 1783.744610,1005.437589"/>
    <poly id="345851572" type="building.yes" color="255,230,230" fill="1" layer="-1.00" shape="1562.835067,1024.748078 1560.889226,1012.296323 1553.397701,1013.448323 1555.332690,1025.899965 1562.835067,1024.748078"/>
    <poly id="345851577" type="building.yes" color="255,230,230" fill="1" layer="-1.00" shape="1832.501621,1119.407341 1858.476869,1105.935763 1854.856792,1099.024020 1828.870686,1112.495490 1832.501621,1119.407341"/>
    <poly id="345851581" type="building.yes" color="255,230,230" fill="1" layer="-1.00" shape="1814.934857,1040.241232 1819.462916,1036.955560 1814.709038,1030.508212 1810.180979,1033.793885 1814.934857,1040.241232"/>
    <poly id="345851592" type="building.yes" color="255,230,230" fill="1" layer="-1.00" shape="1784.980914,971.697247 1787.083265,981.582357 1798.267313,979.228435 1796.164966,969.343324 1784.980914,971.697247"/>
    <poly id="345851611" type="building.yes" color="255,230,230" fill="1" layer="-1.00" shape="1628.038423,1165.288283 1641.399672,1162.336709 1640.278782,1157.310422 1626.906789,1160.250816 1628.038423,1165.288283"/>
    <poly id="345851617" type="building.yes" color="255,230,230" fill="1" layer="-1.00" shape="1766.007408,1111.130973 1784.061506,1104.707280 1781.971430,1098.918266 1763.928184,1105.342072 1766.007408,1111.130973"/>
    <poly id="345851624" type="building.yes" color="255,230,230" fill="1" layer="-1.00" shape="1690.461752,1003.119184 1720.587093,1002.044361 1720.081571,987.825053 1689.945360,988.899768 1690.461752,1003.119184"/>
    <poly id="345851643" type="building.yes" color="255,230,230" fill="1" layer="-1.00" shape="1562.660936,1141.282050 1570.950609,1139.573663 1568.715494,1128.868027 1560.425818,1130.576415 1562.660936,1141.282050"/>
    <poly id="345851652" type="building.yes" color="255,230,230" fill="1" layer="-1.00" shape="1838.908523,1080.074240 1846.878253,1073.580319 1840.487640,1065.832026 1832.517910,1072.325949 1838.908523,1080.074240"/>
    <poly id="345851656" type="building.yes" color="255,230,230" fill="1" layer="-1.00" shape="1634.771983,1053.836300 1640.412336,1052.178255 1637.862023,1043.628064 1632.221668,1045.286110 1634.771983,1053.836300"/>
    <poly id="345851663" type="building.yes" color="255,230,230" fill="1" layer="-1.00" shape="1629.962400,1089.875782 1651.929562,1087.200641 1650.716703,1077.380021 1628.749419,1080.066233 1629.962400,1089.875782"/>
    <poly id="345851691" type="building.yes" color="255,230,230" fill="1" layer="-1.00" shape="1794.295835,1015.032987 1798.660946,1022.339816 1816.605615,1011.774755 1812.240506,1004.467922 1794.295835,1015.032987"/>
    <poly id="345851696" type="building.yes" color="255,230,230" fill="1" layer="-1.00" shape="1821.140471,1078.718489 1831.567558,1069.725771 1825.516001,1062.789086 1815.078174,1071.770626 1821.140471,1078.718489"/>
    <poly id="345851702" type="building.yes" color="255,230,230" fill="1" layer="-1.00" shape="1818.637623,1031.688748 1828.952607,1024.100792 1826.082708,1020.252128 1815.767724,1027.840085 1818.637623,1031.688748"/>
    <poly id="345851707" type="building.yes" color="255,230,230" fill="1" layer="-1.00" shape="1814.881103,959.771417 1811.102802,950.289777 1800.431776,954.486612 1804.210079,963.968249 1814.881103,959.771417"/>
    <poly id="345851713" type="building.yes" color="255,230,230" fill="1" layer="-1.00" shape="1618.225098,1091.139210 1627.145348,1090.400407 1626.381570,1081.248605 1617.461430,1081.976340 1618.225098,1091.139210"/>
    <poly id="345851723" type="building.yes" color="255,230,230" fill="1" layer="-1.00" shape="1754.336550,1076.284054 1769.376470,1071.611730 1767.115823,1064.459335 1752.086754,1069.131772 1754.336550,1076.284054"/>
    <poly id="345851739" type="building.yes" color="255,230,230" fill="1" layer="-1.00" shape="1787.568669,1010.458405 1794.362038,1008.579742 1793.105226,1004.105560 1786.311857,1005.984224 1787.568669,1010.458405"/>
    <poly id="345851744" type="building.yes" color="255,230,230" fill="1" layer="-1.00" shape="1736.123220,1010.384576 1739.509911,1010.419312 1739.531255,1008.338335 1736.144564,1008.303599 1736.123220,1010.384576"/>
    <poly id="345851751" type="building.yes" color="255,230,230" fill="1" layer="-1.00" shape="1620.239166,1104.344447 1634.542647,1101.612859 1633.398039,1095.722856 1619.105410,1098.454556 1620.239166,1104.344447"/>
    <poly id="345851759" type="building.yes" color="255,230,230" fill="1" layer="-1.00" shape="1843.113843,1033.124392 1848.447886,1029.581308 1842.951782,1021.410458 1837.617738,1024.953542 1843.113843,1033.124392"/>
    <poly id="345851798" type="building.yes" color="255,230,230" fill="1" layer="-1.00" shape="1748.179626,1004.474983 1761.000370,1004.484717 1761.001231,1000.167350 1748.180372,1000.168686 1748.179626,1004.474983"/>
    <poly id="345851804" type="building.yes" color="255,230,230" fill="1" layer="-1.00" shape="1630.315542,1030.022925 1643.374396,1026.924327 1641.791774,1020.343481 1628.732918,1023.442081 1630.315542,1030.022925"/>
    <poly id="345851833" type="building.yes" color="255,230,230" fill="1" layer="-1.00" shape="1817.101939,1045.931407 1823.513485,1041.059881 1820.599487,1037.277186 1814.198796,1042.148824 1817.101939,1045.931407"/>
    <poly id="345851860" type="building.yes" color="255,230,230" fill="1" layer="-1.00" shape="1717.424048,1081.816918 1732.978443,1076.729186 1730.177706,1068.253903 1714.612566,1073.330458 1717.424048,1081.816918"/>
    <poly id="345851871" type="building.yes" color="255,230,230" fill="1" layer="-1.00" shape="1814.935014,975.679843 1811.830783,965.042747 1797.501922,969.179916 1800.606157,979.817009 1814.935014,975.679843"/>
    <poly id="345851884" type="building.yes" color="255,230,230" fill="1" layer="-1.00" shape="1795.797585,967.059095 1800.865165,965.151656 1797.302367,955.827213 1792.245641,957.734764 1795.797585,967.059095"/>
    <poly id="345851905" type="building.yes" color="255,230,230" fill="1" layer="-1.00" shape="1842.233121,1003.635413 1849.618092,999.117055 1845.186155,991.975582 1837.801184,996.493942 1842.233121,1003.635413"/>
    <poly id="345851930" type="building.yes" color="255,230,230" fill="1" layer="-1.00" shape="1711.754827,1116.984116 1726.037633,1114.152731 1724.230017,1105.167336 1709.947208,1107.998722 1711.754827,1116.984116"/>
    <poly id="345851937" type="building.yes" color="255,230,230" fill="1" layer="-1.00" shape="1710.677870,1006.060844 1714.891680,1005.893726 1714.742568,1002.438298 1710.539499,1002.616596 1710.677870,1006.060844"/>
    <poly id="345851952" type="building.yes" color="255,230,230" fill="1" layer="-1.00" shape="1620.862980,1136.675776 1629.722555,1134.441880 1628.814627,1130.879042 1619.944196,1133.112827 1620.862980,1136.675776"/>
    <poly id="345851979" type="building.yes" color="255,230,230" fill="1" layer="-1.00" shape="1649.805328,1075.211990 1663.739200,1072.531974 1662.553333,1066.431212 1648.619458,1069.111228 1649.805328,1075.211990"/>
    <poly id="345851986" type="building.yes" color="255,230,230" fill="1" layer="-1.00" shape="1689.393343,1134.821320 1688.166311,1126.384322 1680.664744,1127.458688 1681.891777,1135.895685 1689.393343,1134.821320"/>
    <poly id="345851993" type="building.yes" color="255,230,230" fill="1" layer="-1.00" shape="1701.996701,1013.123155 1710.189714,1012.376915 1709.514977,1005.130092 1701.321848,1005.887401 1701.996701,1013.123155"/>
    <poly id="345852007" type="building.yes" color="255,230,230" fill="1" layer="-1.00" shape="1779.070798,1061.028441 1797.287619,1052.503082 1794.312445,1046.217899 1776.095508,1054.754330 1779.070798,1061.028441"/>
    <poly id="345852012" type="building.yes" color="255,230,230" fill="1" layer="-1.00" shape="1821.918263,985.980349 1827.242090,983.433474 1824.233552,977.225436 1818.909724,979.772313 1821.918263,985.980349"/>
    <poly id="345852020" type="building.yes" color="255,230,230" fill="1" layer="-1.00" shape="1809.707519,937.090859 1812.871766,935.529212 1810.967364,931.745809 1807.813858,933.318636 1809.707519,937.090859"/>
    <poly id="345852024" type="building.yes" color="255,230,230" fill="1" layer="-1.00" shape="1711.659778,986.532031 1719.627189,986.613743 1719.923881,975.679438 1712.165772,975.300979 1711.659778,986.532031"/>
    <poly id="345852032" type="building.yes" color="255,230,230" fill="1" layer="-1.00" shape="1607.167912,1155.243965 1619.212037,1151.581454 1617.793524,1146.994924 1605.760252,1150.657547 1607.167912,1155.243965"/>
    <poly id="345852053" type="building.yes" color="255,230,230" fill="1" layer="-1.00" shape="1546.809124,1143.621412 1550.767727,1142.931359 1549.659754,1136.643211 1545.701264,1137.322195 1546.809124,1143.621412"/>
    <poly id="345852063" type="building.yes" color="255,230,230" fill="1" layer="-1.00" shape="1772.600359,1013.437721 1783.421416,1011.545021 1782.354176,1005.522957 1771.533117,1007.415658 1772.600359,1013.437721"/>
    <poly id="345852073" type="building.yes" color="255,230,230" fill="1" layer="-1.00" shape="1846.017227,1024.187321 1854.242717,1018.160971 1850.837691,1013.565110 1842.612200,1019.591461 1846.017227,1024.187321"/>
    <poly id="345852100" type="building.yes" color="255,230,230" fill="1" layer="-1.00" shape="1547.559934,985.646626 1554.988150,981.139711 1552.222712,976.627945 1544.794610,981.123792 1547.559934,985.646626"/>
    <poly id="345852119" type="building.yes" color="255,230,230" fill="1" layer="-1.00" shape="1796.917214,938.343423 1810.967364,931.745809 1804.688794,920.478361 1790.945233,925.761771 1796.917214,938.343423"/>
    <poly id="345852123" type="building.yes" color="255,230,230" fill="1" layer="-1.00" shape="1824.080124,1004.877217 1828.714692,1001.791901 1826.800531,998.960431 1822.165963,1002.045748 1824.080124,1004.877217"/>
    <poly id="345852133" type="building.yes" color="255,230,230" fill="1" layer="-1.00" shape="1836.146688,1007.502885 1841.187882,1003.934654 1837.581153,998.893918 1832.529104,1002.462038 1836.146688,1007.502885"/>
    <poly id="345852140" type="building.yes" color="255,230,230" fill="1" layer="-1.00" shape="1621.058847,1165.216715 1627.120809,1163.729048 1626.724674,1162.130879 1620.662712,1163.618547 1621.058847,1165.216715"/>