<?xml version="1.0" encoding="UTF-8"?>

<!-- generated on Thu Nov 19 11:44:07 2020 by Eclipse SUMO duarouter Version 1.7.0
<configuration xmlns:xsi="http://www.w3.org/2001/XMLSchema-instance" xsi:noNamespaceSchemaLocation="http://sumo.dlr.de/xsd/duarouterConfiguration.xsd">

    <input>
        <net-file value="/home/manas/Sumo/2020-11-19-11-44-01/osm.net.xml"/>
        <route-files value="/home/manas/Sumo/2020-11-19-11-44-01/osm.passenger.trips.xml"/>
    </input>

    <output>
        <output-file value="/home/manas/Sumo/2020-11-19-11-44-01/osm.passenger.trips.xml.tmp"/>
        <write-trips value="true"/>
    </output>

    <time>
        <begin value="0"/>
        <end value="1000"/>
    </time>

    <report>
        <no-warnings value="true"/>
        <ignore-errors value="true"/>
        <no-step-log value="true"/>
    </report>

</configuration>
-->

<routes xmlns:xsi="http://www.w3.org/2001/XMLSchema-instance" xsi:noNamespaceSchemaLocation="http://sumo.dlr.de/xsd/routes_file.xsd">
    <vType id="veh_passenger" vClass="passenger"/>
    <trip id="veh0" type="veh_passenger" depart="0.00" departLane="best" from="-363460053#3" to="-30810603#3"/>
    <trip id="veh1" type="veh_passenger" depart="2.46" departLane="best" from="30810603#8" to="238460348"/>
    <trip id="veh2" type="veh_passenger" depart="4.93" departLane="best" from="36982655#1" to="-224623107#0"/>
    <trip id="veh3" type="veh_passenger" depart="7.39" departLane="best" from="133488796#0" to="-224623088#1"/>
    <trip id="veh4" type="veh_passenger" depart="9.85" departLane="best" from="-30810603#1" to="224623084"/>
    <trip id="veh5" type="veh_passenger" depart="12.31" departLane="best" from="-224623087" to="-26807590#20"/>
    <trip id="veh6" type="veh_passenger" depart="14.78" departLane="best" from="224632843" to="224623099#2"/>
    <trip id="veh7" type="veh_passenger" depart="17.24" departLane="best" from="36913444#0" to="26807590#18"/>
    <trip id="veh8" type="veh_passenger" depart="19.70" departLane="best" from="760886640#1" to="-36926700#3"/>
    <trip id="veh9" type="veh_passenger" depart="22.17" departLane="best" from="36926698" to="224623113#0"/>
    <trip id="veh10" type="veh_passenger" depart="24.63" departLane="best" from="36913444#0" to="30810603#4"/>
    <trip id="veh11" type="veh_passenger" depart="27.09" departLane="best" from="224623092#0" to="764500259"/>
    <trip id="veh12" type="veh_passenger" depart="29.55" departLane="best" from="36926667#0" to="224623116#0"/>
    <trip id="veh13" type="veh_passenger" depart="32.02" departLane="best" from="36926700#3" to="224623108#1"/>
    <trip id="veh14" type="veh_passenger" depart="34.48" departLane="best" from="26807590#21" to="-224623095"/>
    <trip id="veh15" type="veh_passenger" depart="36.94" departLane="best" from="-30810603#6" to="-36913445#1"/>
    <trip id="veh16" type="veh_passenger" depart="39.41" departLane="best" from="-224623104#2" to="-30810603#8"/>
    <trip id="veh17" type="veh_passenger" depart="41.87" departLane="best" from="-224623110#0" to="-36913442#0"/>
    <trip id="veh18" type="veh_passenger" depart="44.33" departLane="best" from="224623116#2" to="-400478704"/>
    <trip id="veh19" type="veh_passenger" depart="46.79" departLane="best" from="-408521141" to="-26807590#7"/>
    <trip id="veh20" type="veh_passenger" depart="49.26" departLane="best" from="-324405060#1" to="688693176"/>
    <trip id="veh21" type="veh_passenger" depart="51.72" departLane="best" from="-224639758#4" to="30810603#3"/>
    <trip id="veh22" type="veh_passenger" depart="54.18" departLane="best" from="-224639758#0" to="-46703709#2"/>
    <trip id="veh23" type="veh_passenger" depart="56.65" departLane="best" from="794927427" to="224632844"/>
    <trip id="veh24" type="veh_passenger" depart="59.11" departLane="best" from="224623099#3" to="26807590#11"/>
    <trip id="veh25" type="veh_passenger" depart="61.57" departLane="best" from="36926672#0" to="324405059#1"/>
    <trip id="veh26" type="veh_passenger" depart="64.03" departLane="best" from="-30810603#6" to="-224623089"/>
    <trip id="veh27" type="veh_passenger" depart="66.50" departLane="best" from="-36926667#5" to="-324405060#1"/>
    <trip id="veh28" type="veh_passenger" depart="68.96" departLane="best" from="-26807590#7" to="760886639#1"/>
    <trip id="veh29" type="veh_passenger" depart="71.42" departLane="best" departSpeed="max" from="36970818#0" to="-36926667#5"/>
    <trip id="veh30" type="veh_passenger" depart="73.89" departLane="best" departSpeed="max" from="408519783" to="172924459#3"/>
    <trip id="veh31" type="veh_passenger" depart="76.35" departLane="best" from="-324405060#0" to="-30842825#3"/>
    <trip id="veh32" type="veh_passenger" depart="78.81" departLane="best" from="224623101#0" to="-324405058"/>
    <trip id="veh33" type="veh_passenger" depart="81.27" departLane="best" from="224623107#0" to="408519782"/>
    <trip id="veh34" type="veh_passenger" depart="83.74" departLane="best" from="-760886639#0" to="-30810603#1"/>
    <trip id="veh35" type="veh_passenger" depart="86.20" departLane="best" from="794927429" to="224623085#1"/>
    <trip id="veh36" type="veh_passenger" depart="88.66" departLane="best" from="363460053#2" to="133488796#0"/>
    <trip id="veh37" type="veh_passenger" depart="91.13" departLane="best" from="794927429" to="224623092#2"/>
    <trip id="veh38" type="veh_passenger" depart="93.59" departLane="best" from="760889229#1" to="36926700#2"/>
    <trip id="veh39" type="veh_passenger" depart="96.05" departLane="best" from="-224623078#4" to="30810603#0"/>
    <trip id="veh40" type="veh_passenger" depart="98.51" departLane="best" from="-324405060#1" to="224632845"/>
    <trip id="veh41" type="veh_passenger" depart="100.98" departLane="best" from="-224623112#1" to="157572494#0"/>
    <trip id="veh42" type="veh_passenger" depart="103.44" departLane="best" from="172924459#1" to="760886640#2"/>
    <trip id="veh43" type="veh_passenger" depart="105.90" departLane="best" departSpeed="max" from="36970818#0" to="-324405058"/>
    <trip id="veh44" type="veh_passenger" depart="108.37" departLane="best" from="224623078#0" to="-26807590#10"/>
    <trip id="veh45" type="veh_passenger" depart="110.83" departLane="best" departSpeed="max" from="408519783" to="36926703#3"/>
    <trip id="veh46" type="veh_passenger" depart="113.29" departLane="best" from="31565098" to="224623099#0"/>
    <trip id="veh48" type="veh_passenger" depart="118.22" departLane="best" from="-133495462" to="-36926699#1"/>
    <trip id="veh49" type="veh_passenger" depart="120.68" departLane="best" from="-224623084" to="661904601"/>
    <trip id="veh50" type="veh_passenger" depart="123.14" departLane="best" departSpeed="max" from="36970818#0" to="36926667#1"/>
    <trip id="veh51" type="veh_passenger" depart="125.61" departLane="best" departSpeed="max" from="36970818#0" to="760886640#1"/>
    <trip id="veh52" type="veh_passenger" depart="128.07" departLane="best" from="-224623105" to="172952769#4"/>
    <trip id="veh53" type="veh_passenger" depart="130.53" departLane="best" from="-224623102#0" to="31565098"/>
    <trip id="veh54" type="veh_passenger" depart="132.99" departLane="best" departSpeed="max" from="172952769#0" to="224623099#4"/>
    <trip id="veh55" type="veh_passenger" depart="135.46" departLane="best" from="133488796#1" to="-26807590#8"/>
    <trip id="veh56" type="veh_passenger" depart="137.92" departLane="best" from="224623092#2" to="30810603#4"/>
    <trip id="veh57" type="veh_passenger" depart="140.38" departLane="best" from="-26807590#21" to="-36926667#4"/>
    <trip id="veh58" type="veh_passenger" depart="142.85" departLane="best" from="794927428#1" to="224639758#1"/>
    <trip id="veh59" type="veh_passenger" depart="145.31" departLane="best" from="157572494#2" to="224623088#1"/>
    <trip id="veh60" type="veh_passenger" depart="147.77" departLane="best" from="-224623114#0" to="-30810603#3"/>
    <trip id="veh61" type="veh_passenger" depart="150.23" departLane="best" from="-30810603#7" to="-30810603#1"/>
    <trip id="veh62" type="veh_passenger" depart="152.70" departLane="best" from="-224623102#1" to="224632090"/>
    <trip id="veh63" type="veh_passenger" depart="155.16" departLane="best" from="-30810603#6" to="408519782"/>
    <trip id="veh64" type="veh_passenger" depart="157.62" departLane="best" from="36926700#2" to="-224623102#1"/>
    <trip id="veh65" type="veh_passenger" depart="160.09" departLane="best" from="-30810823#1" to="23076405#2"/>
    <trip id="veh66" type="veh_passenger" depart="162.55" departLane="best" from="46703709#4" to="224623105"/>
    <trip id="veh67" type="veh_passenger" depart="165.01" departLane="best" departSpeed="max" from="172952769#0" to="324405060#1"/>
    <trip id="veh68" type="veh_passenger" depart="167.47" departLane="best" from="-224623109#1" to="133489253#1"/>
    <trip id="veh69" type="veh_passenger" depart="169.94" departLane="best" from="133488796#1" to="172924459#7"/>
    <trip id="veh70" type="veh_passenger" depart="172.40" departLane="best" from="30810603#3" to="238460348"/>
    <trip id="veh71" type="veh_passenger" depart="174.86" departLane="best" from="764502951#1-AddedOnRampEdge" to="-224623109#2"/>
    <trip id="veh72" type="veh_passenger" depart="177.33" departLane="best" from="-764500259" to="-36926700#4"/>
    <trip id="veh73" type="veh_passenger" depart="179.79" departLane="best" from="36926700#3" to="-30842825#5"/>
    <trip id="veh74" type="veh_passenger" depart="182.25" departLane="best" from="-26807590#16" to="157572494#7"/>
    <trip id="veh75" type="veh_passenger" depart="184.71" departLane="best" from="133488796#0" to="-36913442#0"/>
    <trip id="veh76" type="veh_passenger" depart="187.18" departLane="best" from="-30842825#5" to="46703709#4"/>
    <trip id="veh77" type="veh_passenger" depart="189.64" departLane="best" departSpeed="max" from="760889229#0" to="46703709#5"/>
    <trip id="veh78" type="veh_passenger" depart="192.10" departLane="best" from="36926699#1" to="-224639758#2"/>
    <trip id="veh79" type="veh_passenger" depart="194.57" departLane="best" departSpeed="max" from="172952769#0" to="-26807590#9"/>
    <trip id="veh80" type="veh_passenger" depart="197.03" departLane="best" from="-760886639#1" to="-224623099#2"/>
    <trip id="veh81" type="veh_passenger" depart="199.49" departLane="best" from="172924459#2" to="133488796#1"/>
    <trip id="veh82" type="veh_passenger" depart="201.96" departLane="best" from="760886640#1" to="794927428#1"/>
    <trip id="veh83" type="veh_passenger" depart="204.42" departLane="best" from="224623099#2" to="26807590#9"/>
    <trip id="veh84" type="veh_passenger" depart="206.88" departLane="best" departSpeed="max" from="760889229#0" to="224623108#1"/>
    <trip id="veh86" type="veh_passenger" depart="211.81" departLane="best" from="-224623099#2" to="224623109#2"/>
    <trip id="veh87" type="veh_passenger" depart="214.27" departLane="best" from="224623078#1" to="36926699#3"/>
    <trip id="veh88" type="veh_passenger" depart="216.73" departLane="best" from="-224632846" to="760886640#2"/>
    <trip id="veh89" type="veh_passenger" depart="219.20" departLane="best" from="-224623104#2" to="-26807590#14"/>
    <trip id="veh90" type="veh_passenger" depart="221.66" departLane="best" from="224623109#1" to="238460348"/>
    <trip id="veh91" type="veh_passenger" depart="224.12" departLane="best" from="-30810823#0" to="-224623113#1"/>
    <trip id="veh93" type="veh_passenger" depart="229.05" departLane="best" from="224623087" to="688538807"/>
    <trip id="veh94" type="veh_passenger" depart="231.51" departLane="best" from="-30810823#2" to="-688693176"/>
    <trip id="veh95" type="veh_passenger" depart="233.97" departLane="best" from="23076405#1" to="-36913445#5"/>
    <trip id="veh96" type="veh_passenger" depart="236.44" departLane="best" from="-36926672#0" to="30842825#3"/>
    <trip id="veh97" type="veh_passenger" depart="238.90" departLane="best" from="-224623102#1" to="172924459#3"/>
    <trip id="veh99" type="veh_passenger" depart="243.82" departLane="best" from="-224623102#2" to="-26807590#8"/>
    <trip id="veh100" type="veh_passenger" depart="246.29" departLane="best" from="-324405060#0" to="688538805#1"/>
    <trip id="veh101" type="veh_passenger" depart="248.75" departLane="best" departSpeed="max" from="36970818#0" to="36982655#0"/>
    <trip id="veh102" type="veh_passenger" depart="251.21" departLane="best" from="36926667#2" to="26807590#20"/>
    <trip id="veh103" type="veh_passenger" depart="253.68" departLane="best" from="224623112#2" to="776784266"/>
    <trip id="veh104" type="veh_passenger" depart="256.14" departLane="best" from="224639758#2" to="760886639#0"/>
    <trip id="veh105" type="veh_passenger" depart="258.60" departLane="best" from="172952769#2" to="408519782"/>
    <trip id="veh106" type="veh_passenger" depart="261.06" departLane="best" from="36926698" to="-224623108#1"/>
    <trip id="veh107" type="veh_passenger" depart="263.53" departLane="best" from="133488796#1" to="-363460053#3"/>
    <trip id="veh108" type="veh_passenger" depart="265.99" departLane="best" from="30810823#1" to="224623101#0"/>
    <trip id="veh109" type="veh_passenger" depart="268.45" departLane="best" from="36982659#2" to="224623099#3"/>
    <trip id="veh110" type="veh_passenger" depart="270.92" departLane="best" from="36926667#3" to="224623109#1"/>
    <trip id="veh111" type="veh_passenger" depart="273.38" departLane="best" from="-224632092" to="-224623115#0"/>
    <trip id="veh112" type="veh_passenger" depart="275.84" departLane="best" from="-36926667#2" to="408519782"/>
    <trip id="veh113" type="veh_passenger" depart="278.30" departLane="best" from="36913442#0" to="36926700#2"/>
    <trip id="veh114" type="veh_passenger" depart="280.77" departLane="best" from="36982659#0" to="-26807590#7"/>
    <trip id="veh115" type="veh_passenger" depart="283.23" departLane="best" from="-30842825#5" to="-224623110#1"/>
    <trip id="veh116" type="veh_passenger" depart="285.69" departLane="best" from="-764500259" to="224623116#1"/>
    <trip id="veh117" type="veh_passenger" depart="288.16" departLane="best" from="-224632845" to="688538805#0"/>
    <trip id="veh118" type="veh_passenger" depart="290.62" departLane="best" from="36926700#4" to="764500259"/>
    <trip id="veh119" type="veh_passenger" depart="293.08" departLane="best" from="36913444#1" to="36982655#1"/>
    <trip id="veh120" type="veh_passenger" depart="295.54" departLane="best" from="-224623085#1" to="30810603#8"/>
    <trip id="veh121" type="veh_passenger" depart="298.01" departLane="best" from="-36926700#1" to="688538805#0"/>
    <trip id="veh122" type="veh_passenger" depart="300.47" departLane="best" from="36913442#2" to="36926700#4"/>
    <trip id="veh123" type="veh_passenger" depart="302.93" departLane="best" from="363460053#0" to="-224623110#3"/>
    <trip id="veh124" type="veh_passenger" depart="305.40" departLane="best" from="36926703#3" to="36926700#1"/>
    <trip id="veh125" type="veh_passenger" depart="307.86" departLane="best" from="-30810603#2" to="36913445#2"/>
    <trip id="veh126" type="veh_passenger" depart="310.32" departLane="best" from="363460053#3" to="-30810603#6"/>
    <trip id="veh127" type="veh_passenger" depart="312.78" departLane="best" from="-224623085#1" to="-26807590#17"/>
    <trip id="veh128" type="veh_passenger" depart="315.25" departLane="best" from="-36926699#3" to="36926700#4"/>
    <trip id="veh129" type="veh_passenger" depart="317.71" departLane="best" departSpeed="max" from="760889229#0" to="-36913442#0"/>
    <trip id="veh130" type="veh_passenger" depart="320.17" departLane="best" from="224632090" to="-760886639#0"/>
    <trip id="veh131" type="veh_passenger" depart="322.64" departLane="best" from="764502951#1" to="224623097#0"/>
    <trip id="veh132" type="veh_passenger" depart="325.10" departLane="best" from="661904601" to="-224623112#2"/>
    <trip id="veh133" type="veh_passenger" depart="327.56" departLane="best" departSpeed="max" from="760889229#0" to="-26807590#10"/>
    <trip id="veh134" type="veh_passenger" depart="330.02" departLane="best" departSpeed="max" from="760889229#0" to="-324405060#0"/>
    <trip id="veh135" type="veh_passenger" depart="332.49" departLane="best" from="-224623110#3" to="157572494#0"/>
    <trip id="veh136" type="veh_passenger" depart="334.95" departLane="best" from="30810603#3" to="-36926667#5"/>
    <trip id="veh137" type="veh_passenger" depart="337.41" departLane="best" from="-46703709#5" to="224623107#1"/>
    <trip id="veh138" type="veh_passenger" depart="339.88" departLane="best" from="-31565098" to="26807590#3"/>
    <trip id="veh139" type="veh_passenger" depart="342.34" departLane="best" from="-133495462" to="46703709#5"/>
    <trip id="veh140" type="veh_passenger" depart="344.80" departLane="best" from="30810823#1" to="23076405#2"/>
    <trip id="veh141" type="veh_passenger" depart="347.26" departLane="best" from="-400478704" to="-224623102#0"/>
    <trip id="veh142" type="veh_passenger" depart="349.73" departLane="best" from="224639758#3" to="-36926700#0"/>
    <trip id="veh143" type="veh_passenger" depart="352.19" departLane="best" from="-36926667#5" to="36926699#1"/>
    <trip id="veh144" type="veh_passenger" depart="354.65" departLane="best" from="-36926667#3" to="-776784266"/>
    <trip id="veh145" type="veh_passenger" depart="357.12" departLane="best" from="-764500259" to="-36913445#4"/>
    <trip id="veh147" type="veh_passenger" depart="362.04" departLane="best" from="36982659#2" to="224623115#0"/>
    <trip id="veh148" type="veh_passenger" depart="364.50" departLane="best" from="-36913445#6" to="224623099#4"/>
    <trip id="veh149" type="veh_passenger" depart="366.97" departLane="best" from="-133495462" to="-36913445#0"/>
    <trip id="veh150" type="veh_passenger" depart="369.43" departLane="best" from="133489253#1" to="224623109#0"/>
    <trip id="veh151" type="veh_passenger" depart="371.89" departLane="best" from="224632846" to="172924459#7"/>
    <trip id="veh152" type="veh_passenger" depart="374.36" departLane="best" departSpeed="max" from="172952769#0" to="408519782"/>
    <trip id="veh153" type="veh_passenger" depart="376.82" departLane="best" from="36913442#0" to="-224639758#3"/>
    <trip id="veh154" type="veh_passenger" depart="379.28" departLane="best" from="-224623105" to="224623088#0"/>
    <trip id="veh155" type="veh_passenger" depart="381.74" departLane="best" from="224623116#1" to="-36926700#2"/>
    <trip id="veh156" type="veh_passenger" depart="384.21" departLane="best" from="36913445#3" to="30842825#3"/>
    <trip id="veh157" type="veh_passenger" depart="386.67" departLane="best" from="238460348" to="-30810603#3"/>
    <trip id="veh158" type="veh_passenger" depart="389.13" departLane="best" from="-26807590#20" to="-224623085#1"/>
    <trip id="veh159" type="veh_passenger" depart="391.60" departLane="best" from="-30842825#2" to="172952769#2"/>
    <trip id="veh160" type="veh_passenger" depart="394.06" departLane="best" from="36926699#1" to="-224623102#2"/>
    <trip id="veh161" type="veh_passenger" depart="396.52" departLane="best" from="-794927428#1" to="224632090"/>
    <trip id="veh162" type="veh_passenger" depart="398.98" departLane="best" from="172952769#3" to="-30842825#2"/>
    <trip id="veh163" type="veh_passenger" depart="401.45" departLane="best" from="30842825#3" to="324405059#0"/>
    <trip id="veh164" type="veh_passenger" depart="403.91" departLane="best" from="-26807590#0" to="760886640#2"/>
    <trip id="veh165" type="veh_passenger" depart="406.37" departLane="best" from="-30842825#5" to="36926699#1"/>
    <trip id="veh166" type="veh_passenger" depart="408.84" departLane="best" from="172924459#2" to="36913442#2"/>
    <trip id="veh167" type="veh_passenger" depart="411.30" departLane="best" from="224639758#4" to="776784266"/>
    <trip id="veh168" type="veh_passenger" depart="413.76" departLane="best" from="224623109#1" to="760886640#2"/>
    <trip id="veh169" type="veh_passenger" depart="416.22" departLane="best" from="36982655#1" to="224623114#2"/>
    <trip id="veh170" type="veh_passenger" depart="418.69" departLane="best" from="36926667#1" to="224623099#4"/>
    <trip id="veh171" type="veh_passenger" depart="421.15" departLane="best" from="36982658" to="30810823#2"/>
    <trip id="veh172" type="veh_passenger" depart="423.61" departLane="best" departSpeed="max" from="172952769#0" to="-324405057#0"/>
    <trip id="veh173" type="veh_passenger" depart="426.08" departLane="best" from="-30842825#3" to="224632843"/>
    <trip id="veh174" type="veh_passenger" depart="428.54" departLane="best" from="-224623104#1" to="-36913442#3"/>
    <trip id="veh175" type="veh_passenger" depart="431.00" departLane="best" from="-363460053#1" to="-36926672#2"/>
    <trip id="veh176" type="veh_passenger" depart="433.46" departLane="best" from="224623092#2" to="-224623116#2"/>
    <trip id="veh177" type="veh_passenger" depart="435.93" departLane="best" from="-30810603#7" to="26807590#16"/>
    <trip id="veh178" type="veh_passenger" depart="438.39" departLane="best" from="26807590#21" to="-224623101#0"/>
    <trip id="veh179" type="veh_passenger" depart="440.85" departLane="best" from="-776784266" to="224623099#1"/>
    <trip id="veh180" type="veh_passenger" depart="443.32" departLane="best" from="-794927428#1" to="-26807590#5"/>
    <trip id="veh182" type="veh_passenger" depart="448.24" departLane="best" from="36926700#0" to="324405057#0"/>
    <trip id="veh183" type="veh_passenger" depart="450.70" departLane="best" from="36926699#3" to="760886640#2"/>
    <trip id="veh185" type="veh_passenger" depart="455.63" departLane="best" from="224623097#0" to="224623113#0"/>
    <trip id="veh186" type="veh_passenger" depart="458.09" departLane="best" from="-30810603#2" to="-30810603#1"/>
    <trip id="veh187" type="veh_passenger" depart="460.56" departLane="best" from="157572494#0" to="-224623088#0"/>
    <trip id="veh189" type="veh_passenger" depart="465.48" departLane="best" from="-764500259" to="-224639758#1"/>
    <trip id="veh190" type="veh_passenger" depart="467.94" departLane="best" departSpeed="max" from="172952769#0" to="-224623115#0"/>
    <trip id="veh191" type="veh_passenger" depart="470.41" departLane="best" from="-688538807" to="224623104#1"/>
    <trip id="veh192" type="veh_passenger" depart="472.87" departLane="best" from="-224623116#1" to="172924459#6"/>
    <trip id="veh193" type="veh_passenger" depart="475.33" departLane="best" from="31565098" to="-46703709#2"/>
    <trip id="veh194" type="veh_passenger" depart="477.80" departLane="best" from="30842825#3" to="36926667#2"/>
    <trip id="veh195" type="veh_passenger" depart="480.26" departLane="best" from="-30842825#6" to="-224623104#3"/>
    <trip id="veh197" type="veh_passenger" depart="485.18" departLane="best" from="224632844" to="30842825#5"/>
    <trip id="veh198" type="veh_passenger" depart="487.65" departLane="best" from="688693176" to="-26807590#20"/>
    <trip id="veh199" type="veh_passenger" depart="490.11" departLane="best" from="-224623084" to="-224632844"/>
    <trip id="veh200" type="veh_passenger" depart="492.57" departLane="best" from="-224623114#2" to="23076405#2"/>
    <trip id="veh201" type="veh_passenger" depart="495.04" departLane="best" from="224623101#1" to="-30810603#0"/>
    <trip id="veh202" type="veh_passenger" depart="497.50" departLane="best" from="26807590#18" to="324405058"/>
    <trip id="veh203" type="veh_passenger" depart="499.96" departLane="best" from="30842825#2" to="-224623112#2"/>
    <trip id="veh204" type="veh_passenger" depart="502.42" departLane="best" from="36913445#3" to="760886640#2"/>
    <trip id="veh205" type="veh_passenger" depart="504.89" departLane="best" from="-224623110#3" to="-224623087"/>
    <trip id="veh207" type="veh_passenger" depart="509.81" departLane="best" from="760886640#1" to="-688693176"/>
    <trip id="veh208" type="veh_passenger" depart="512.28" departLane="best" from="36926699#2" to="224623112#2"/>
    <trip id="veh209" type="veh_passenger" depart="514.74" departLane="best" from="133489253#0" to="-408521141"/>
    <trip id="veh210" type="veh_passenger" depart="517.20" departLane="best" from="224623078#2" to="-36926703#1"/>
    <trip id="veh211" type="veh_passenger" depart="519.66" departLane="best" from="36926699#1" to="36913445#4"/>
    <trip id="veh212" type="veh_passenger" depart="522.13" departLane="best" from="-224623110#2" to="760886640#2"/>
    <trip id="veh213" type="veh_passenger" depart="524.59" departLane="best" from="224623116#2" to="36926667#0"/>
    <trip id="veh214" type="veh_passenger" depart="527.05" departLane="best" from="30810603#6" to="760886640#2"/>
    <trip id="veh215" type="veh_passenger" depart="529.52" departLane="best" from="224623092#1" to="172952769#3"/>
    <trip id="veh216" type="veh_passenger" depart="531.98" departLane="best" from="157572494#0" to="30810603#4"/>
    <trip id="veh217" type="veh_passenger" depart="534.44" departLane="best" from="-363460053#0" to="36926699#2"/>
    <trip id="veh218" type="veh_passenger" depart="536.90" departLane="best" from="36926667#1" to="-224623107#0"/>
    <trip id="veh219" type="veh_passenger" depart="539.37" departLane="best" departSpeed="max" from="36970818#0" to="-30842825#2"/>
    <trip id="veh220" type="veh_passenger" depart="541.83" departLane="best" departSpeed="max" from="172952769#0" to="224623114#1"/>
    <trip id="veh221" type="veh_passenger" depart="544.29" departLane="best" from="36926699#2" to="-26807590#13"/>
    <trip id="veh222" type="veh_passenger" depart="546.76" departLane="best" from="-26807590#8" to="36913442#1"/>
    <trip id="veh223" type="veh_passenger" depart="549.22" departLane="best" from="-36926700#4" to="36982655#1"/>
    <trip id="veh224" type="veh_passenger" depart="551.68" departLane="best" from="26807590#2" to="-363460053#3"/>
    <trip id="veh225" type="veh_passenger" depart="554.14" departLane="best" from="-224623078#3" to="760886640#2"/>
    <trip id="veh226" type="veh_passenger" depart="556.61" departLane="best" from="-224623105" to="26807590#9"/>
    <trip id="veh227" type="veh_passenger" depart="559.07" departLane="best" from="172952769#2" to="30842825#7"/>
    <trip id="veh228" type="veh_passenger" depart="561.53" departLane="best" from="172952769#2" to="363460053#2"/>
    <trip id="veh229" type="veh_passenger" depart="564.00" departLane="best" from="-224623108#1" to="-30810603#2"/>
    <trip id="veh230" type="veh_passenger" depart="566.46" departLane="best" from="26807590#15" to="-36926667#1"/>
    <trip id="veh231" type="veh_passenger" depart="568.92" departLane="best" from="224623104#3" to="172924459#7"/>
    <trip id="veh232" type="veh_passenger" depart="571.39" departLane="best" from="224623089" to="133488796#2"/>
    <trip id="veh233" type="veh_passenger" depart="573.85" departLane="best" from="-30842825#6" to="-224623114#0"/>
    <trip id="veh234" type="veh_passenger" depart="576.31" departLane="best" from="224623092#0" to="31565098"/>
    <trip id="veh235" type="veh_passenger" depart="578.77" departLane="best" from="-26807590#14" to="-30810603#0"/>
    <trip id="veh236" type="veh_passenger" depart="581.24" departLane="best" departSpeed="max" from="172952769#0" to="30810603#1"/>
    <trip id="veh237" type="veh_passenger" depart="583.70" departLane="best" from="764500259" to="224623092#0"/>
    <trip id="veh238" type="veh_passenger" depart="586.16" departLane="best" from="-36913442#2" to="-224623110#0"/>
    <trip id="veh239" type="veh_passenger" depart="588.63" departLane="best" from="-26807590#18" to="-30810603#6"/>
    <trip id="veh240" type="veh_passenger" depart="591.09" departLane="best" from="224623092#0" to="-363460053#2"/>
    <trip id="veh241" type="veh_passenger" depart="593.55" departLane="best" from="764500259" to="224623101#1"/>
    <trip id="veh242" type="veh_passenger" depart="596.01" departLane="best" from="26807590#17" to="-224623114#2"/>
    <trip id="veh243" type="veh_passenger" depart="598.48" departLane="best" from="36926703#2" to="224623078#0"/>
    <trip id="veh244" type="veh_passenger" depart="600.94" departLane="best" departSpeed="max" from="172952769#0" to="157572494#3"/>
    <trip id="veh245" type="veh_passenger" depart="603.40" departLane="best" from="-26807590#14" to="-224623097#1"/>
    <trip id="veh246" type="veh_passenger" depart="605.87" departLane="best" from="688538805#0" to="172952769#2"/>
    <trip id="veh247" type="veh_passenger" depart="608.33" departLane="best" from="36913445#4" to="-760886639#1"/>
    <trip id="veh248" type="veh_passenger" depart="610.79" departLane="best" from="-224623102#2" to="224623116#4"/>
    <trip id="veh249" type="veh_passenger" depart="613.25" departLane="best" from="-224623099#0" to="-224632092"/>
    <trip id="veh250" type="veh_passenger" depart="615.72" departLane="best" from="794927428#1" to="-224623113#1"/>
    <trip id="veh251" type="veh_passenger" depart="618.18" departLane="best" from="324405057#0" to="224623113#1"/>
    <trip id="veh252" type="veh_passenger" depart="620.64" departLane="best" from="363460053#1" to="-30810603#4"/>
    <trip id="veh253" type="veh_passenger" depart="623.11" departLane="best" from="224623085#1" to="172924459#0"/>
    <trip id="veh254" type="veh_passenger" depart="625.57" departLane="best" from="794927427" to="-36926667#1"/>
    <trip id="veh255" type="veh_passenger" depart="628.03" departLane="best" from="30810823#0" to="760886640#1"/>
    <trip id="veh257" type="veh_passenger" depart="632.96" departLane="best" from="-30810603#7" to="26807590#3"/>
    <trip id="veh258" type="veh_passenger" depart="635.42" departLane="best" from="26807590#20" to="172924459#1"/>
    <trip id="veh259" type="veh_passenger" depart="637.88" departLane="best" from="363460053#0" to="224623116#3"/>
    <trip id="veh260" type="veh_passenger" depart="640.35" departLane="best" from="224639758#1" to="688538805#1"/>